<?xml version="1.0" encoding="UTF-8"?>

<!-- generated on Fri Mar 23 13:14:02 2018 by SUMO duarouter Version 0.28.0
<?xml version="1.0" encoding="UTF-8"?>

<configuration xmlns:xsi="http://www.w3.org/2001/XMLSchema-instance" xsi:noNamespaceSchemaLocation="http://sumo.dlr.de/xsd/duarouterConfiguration.xsd">

    <input>
        <net-file value="./corridor/corridor.net.xml"/>
        <route-files value="./FLOWFILES/corridor_flows.xml"/>
    </input>

    <output>
        <output-file value="./ROUTEFILES/corridor_R000.rou.xml"/>
    </output>

    <processing>
        <randomize-flows value="true"/>
    </processing>

    <defaults>
        <departlane value="best"/>
        <departspeed value="max"/>
    </defaults>

    <random_number>
        <seed value="0"/>
    </random_number>

</configuration>
-->

<routes xmlns:xsi="http://www.w3.org/2001/XMLSchema-instance" xsi:noNamespaceSchemaLocation="http://sumo.dlr.de/xsd/routes_file.xsd">
<!--PASSENGER CAR-->
<vType id="car" length="4.3" minGap="2.5"
    accel="2.6" decel="4.5" sigma="0.5" maxSpeed="50"
    probability="82.7" color="240,228,66"/>
<!--MOTORCYCLE-->
<vType id="motorcycle" length="2.2" minGap="2.5"
    accel="5.0" decel="9.0" sigma="0.5" maxSpeed="55"
    probability="3.0" color="36,255,36"/>
<!--LGV-->
<vType id="lgv" length="6.5" minGap="2.5"
    accel="2.0" decel="4.0" sigma="0.5" maxSpeed="44"
    probability="12.3" color="86,180,233"/>
<!--HGV-->
<vType id="hgv" length="7.1" minGap="2.5"
    accel="1.3" decel="3.5" sigma="0.5" maxSpeed="36"
    probability="1.6" color="0,158,115"/>
<!--BUS-->
<vType id="bus" length="12.0" minGap="2.5"
    accel="1.0" decel="3.5" sigma="0.5" maxSpeed="24"
    probability="0.4" color="255,109,182"/>

</routes>
