<routes>
    <vType id="typeHuman" accel="2.6" decel="4.5" sigma="0.5" length="5" minGap="2.5" maxSpeed="25" guiShape="passenger" color="1,1,0">
    </vType>

    <vType id="typeITSCV" accel="2.6" decel="4.5" sigma="0.5" length="5" minGap="2.5" maxSpeed="25" guiShape="passenger" color="1,0,0">
        <carFollowing-Krauss tau="1.0"/>
    </vType>

    <route edges="6:4 4:0 0:10 10:11 " id="6:4TO10:11"/>
    <route edges="6:4 4:0 0:1 1:2 2:3 3:16 16:17 " id="6:4TO16:17"/>
    <route edges="6:4 4:0 0:1 1:2 2:3 3:5 5:7 " id="6:4TO5:7"/>
    <route edges="6:4 4:0 0:1 1:2 2:14 14:15 " id="6:4TO14:15"/>
    <route edges="6:4 4:0 0:8 8:9 " id="6:4TO8:9"/>
    <route edges="6:4 4:0 0:1 1:2 2:3 3:18 18:19 " id="6:4TO18:19"/>
    <route edges="6:4 4:0 0:1 1:12 12:13 " id="6:4TO12:13"/>
    <route edges="9:8 8:0 0:4 4:6 " id="9:8TO4:6"/>
    <route edges="9:8 8:0 0:1 1:2 2:3 3:16 16:17 " id="9:8TO16:17"/>
    <route edges="9:8 8:0 0:1 1:2 2:3 3:5 5:7 " id="9:8TO5:7"/>
    <route edges="9:8 8:0 0:1 1:2 2:14 14:15 " id="9:8TO14:15"/>
    <route edges="9:8 8:0 0:10 10:11 " id="9:8TO10:11"/>
    <route edges="9:8 8:0 0:1 1:2 2:3 3:18 18:19 " id="9:8TO18:19"/>
    <route edges="9:8 8:0 0:1 1:12 12:13 " id="9:8TO12:13"/>
    <route edges="11:10 10:0 0:4 4:6 " id="11:10TO4:6"/>
    <route edges="11:10 10:0 0:1 1:2 2:3 3:16 16:17 " id="11:10TO16:17"/>
    <route edges="11:10 10:0 0:1 1:2 2:3 3:5 5:7 " id="11:10TO5:7"/>
    <route edges="11:10 10:0 0:1 1:2 2:14 14:15 " id="11:10TO14:15"/>
    <route edges="11:10 10:0 0:8 8:9 " id="11:10TO8:9"/>
    <route edges="11:10 10:0 0:1 1:2 2:3 3:18 18:19 " id="11:10TO18:19"/>
    <route edges="11:10 10:0 0:1 1:12 12:13 " id="11:10TO12:13"/>
    <route edges="13:12 12:1 1:0 0:10 10:11 " id="13:12TO10:11"/>
    <route edges="13:12 12:1 1:2 2:14 14:15 " id="13:12TO14:15"/>
    <route edges="13:12 12:1 1:0 0:8 8:9 " id="13:12TO8:9"/>
    <route edges="13:12 12:1 1:2 2:3 3:16 16:17 " id="13:12TO16:17"/>
    <route edges="13:12 12:1 1:0 0:4 4:6 " id="13:12TO4:6"/>
    <route edges="13:12 12:1 1:2 2:3 3:5 5:7 " id="13:12TO5:7"/>
    <route edges="13:12 12:1 1:2 2:3 3:18 18:19 " id="13:12TO18:19"/>
    <route edges="15:14 14:2 2:1 1:12 12:13 " id="15:14TO12:13"/>
    <route edges="15:14 14:2 2:3 3:18 18:19 " id="15:14TO18:19"/>
    <route edges="15:14 14:2 2:3 3:16 16:17 " id="15:14TO16:17"/>
    <route edges="15:14 14:2 2:3 3:5 5:7 " id="15:14TO5:7"/>
    <route edges="15:14 14:2 2:1 1:0 0:8 8:9 " id="15:14TO8:9"/>
    <route edges="15:14 14:2 2:1 1:0 0:10 10:11 " id="15:14TO10:11"/>
    <route edges="15:14 14:2 2:1 1:0 0:4 4:6 " id="15:14TO4:6"/>
    <route edges="17:16 16:3 3:2 2:1 1:0 0:8 8:9 " id="17:16TO8:9"/>
    <route edges="17:16 16:3 3:5 5:7 " id="17:16TO5:7"/>
    <route edges="17:16 16:3 3:2 2:1 1:0 0:10 10:11 " id="17:16TO10:11"/>
    <route edges="17:16 16:3 3:2 2:1 1:0 0:4 4:6 " id="17:16TO4:6"/>
    <route edges="17:16 16:3 3:18 18:19 " id="17:16TO18:19"/>
    <route edges="17:16 16:3 3:2 2:1 1:12 12:13 " id="17:16TO12:13"/>
    <route edges="17:16 16:3 3:2 2:14 14:15 " id="17:16TO14:15"/>
    <route edges="19:18 18:3 3:2 2:1 1:0 0:8 8:9 " id="19:18TO8:9"/>
    <route edges="19:18 18:3 3:5 5:7 " id="19:18TO5:7"/>
    <route edges="19:18 18:3 3:2 2:1 1:0 0:10 10:11 " id="19:18TO10:11"/>
    <route edges="19:18 18:3 3:2 2:1 1:0 0:4 4:6 " id="19:18TO4:6"/>
    <route edges="19:18 18:3 3:16 16:17 " id="19:18TO16:17"/>
    <route edges="19:18 18:3 3:2 2:1 1:12 12:13 " id="19:18TO12:13"/>
    <route edges="19:18 18:3 3:2 2:14 14:15 " id="19:18TO14:15"/>
    <route edges="7:5 5:3 3:18 18:19 " id="7:5TO18:19"/>
    <route edges="7:5 5:3 3:2 2:1 1:0 0:8 8:9 " id="7:5TO8:9"/>
    <route edges="7:5 5:3 3:2 2:1 1:0 0:4 4:6 " id="7:5TO4:6"/>
    <route edges="7:5 5:3 3:2 2:1 1:12 12:13 " id="7:5TO12:13"/>
    <route edges="7:5 5:3 3:16 16:17 " id="7:5TO16:17"/>
    <route edges="7:5 5:3 3:2 2:1 1:0 0:10 10:11 " id="7:5TO10:11"/>
    <route edges="7:5 5:3 3:2 2:14 14:15 " id="7:5TO14:15"/>
    
    <vehicle id="0" type="typeHuman" route="6:4TO12:13" depart="0"  departLane="best" departSpeed="max"/>
    <vehicle id="1" type="typeHuman" route="13:12TO4:6" depart="0"  departLane="best" departSpeed="max"/>
    <vehicle id="2" type="typeHuman" route="19:18TO16:17" depart="0"  departLane="best" departSpeed="max"/>
    <vehicle id="3" type="typeHuman" route="6:4TO10:11" depart="1"  departLane="best" departSpeed="max"/>
    <vehicle id="4" type="typeHuman" route="6:4TO5:7" depart="1"  departLane="best" departSpeed="max"/>
    <vehicle id="5" type="typeHuman" route="6:4TO18:19" depart="1"  departLane="best" departSpeed="max"/>
    <vehicle id="6" type="typeHuman" route="19:18TO8:9" depart="2"  departLane="best" departSpeed="max"/>
    <vehicle id="7" type="typeHuman" route="19:18TO5:7" depart="3"  departLane="best" departSpeed="max"/>
    <vehicle id="8" type="typeHuman" route="7:5TO18:19" depart="3"  departLane="best" departSpeed="max"/>
    <vehicle id="9" type="typeHuman" route="9:8TO18:19" depart="4"  departLane="best" departSpeed="max"/>
    <vehicle id="10" type="typeHuman" route="7:5TO12:13" depart="5"  departLane="best" departSpeed="max"/>
    <vehicle id="11" type="typeHuman" route="6:4TO14:15" depart="7"  departLane="best" departSpeed="max"/>
    <vehicle id="12" type="typeHuman" route="17:16TO18:19" depart="7"  departLane="best" departSpeed="max"/>
    <vehicle id="13" type="typeHuman" route="6:4TO16:17" depart="8"  departLane="best" departSpeed="max"/>
    <vehicle id="14" type="typeHuman" route="15:14TO10:11" depart="8"  departLane="best" departSpeed="max"/>
    <vehicle id="15" type="typeHuman" route="7:5TO14:15" depart="8"  departLane="best" departSpeed="max"/>
    <vehicle id="16" type="typeHuman" route="13:12TO4:6" depart="10"  departLane="best" departSpeed="max"/>
    <vehicle id="17" type="typeHuman" route="7:5TO4:6" depart="10"  departLane="best" departSpeed="max"/>
    <vehicle id="18" type="typeHuman" route="15:14TO18:19" depart="11"  departLane="best" departSpeed="max"/>
    <vehicle id="19" type="typeHuman" route="13:12TO14:15" depart="12"  departLane="best" departSpeed="max"/>
    <vehicle id="20" type="typeHuman" route="6:4TO5:7" depart="13"  departLane="best" departSpeed="max"/>
    <vehicle id="21" type="typeHuman" route="17:16TO5:7" depart="14"  departLane="best" departSpeed="max"/>
    <vehicle id="22" type="typeHuman" route="6:4TO18:19" depart="15"  departLane="best" departSpeed="max"/>
    <vehicle id="23" type="typeHuman" route="9:8TO12:13" depart="16"  departLane="best" departSpeed="max"/>
    <vehicle id="24" type="typeHuman" route="11:10TO12:13" depart="17"  departLane="best" departSpeed="max"/>
    <vehicle id="25" type="typeHuman" route="19:18TO14:15" depart="17"  departLane="best" departSpeed="max"/>
    <vehicle id="26" type="typeHuman" route="15:14TO10:11" depart="20"  departLane="best" departSpeed="max"/>
    <vehicle id="27" type="typeHuman" route="19:18TO14:15" depart="20"  departLane="best" departSpeed="max"/>
    <vehicle id="28" type="typeHuman" route="9:8TO5:7" depart="21"  departLane="best" departSpeed="max"/>
    <vehicle id="29" type="typeHuman" route="7:5TO16:17" depart="21"  departLane="best" departSpeed="max"/>
    <vehicle id="30" type="typeHuman" route="17:16TO18:19" depart="22"  departLane="best" departSpeed="max"/>
    <vehicle id="31" type="typeHuman" route="19:18TO8:9" depart="22"  departLane="best" departSpeed="max"/>
    <vehicle id="32" type="typeHuman" route="7:5TO18:19" depart="22"  departLane="best" departSpeed="max"/>
    <vehicle id="33" type="typeHuman" route="6:4TO18:19" depart="26"  departLane="best" departSpeed="max"/>
    <vehicle id="34" type="typeHuman" route="17:16TO8:9" depart="26"  departLane="best" departSpeed="max"/>
    <vehicle id="35" type="typeHuman" route="17:16TO10:11" depart="26"  departLane="best" departSpeed="max"/>
    <vehicle id="36" type="typeHuman" route="11:10TO8:9" depart="29"  departLane="best" departSpeed="max"/>
    <vehicle id="37" type="typeHuman" route="19:18TO5:7" depart="29"  departLane="best" departSpeed="max"/>
    <vehicle id="38" type="typeHuman" route="19:18TO14:15" depart="29"  departLane="best" departSpeed="max"/>
    <vehicle id="39" type="typeHuman" route="13:12TO16:17" depart="30"  departLane="best" departSpeed="max"/>
    <vehicle id="40" type="typeHuman" route="17:16TO5:7" depart="33"  departLane="best" departSpeed="max"/>
    <vehicle id="41" type="typeHuman" route="6:4TO16:17" depart="34"  departLane="best" departSpeed="max"/>
    <vehicle id="42" type="typeHuman" route="6:4TO10:11" depart="35"  departLane="best" departSpeed="max"/>
    <vehicle id="43" type="typeHuman" route="11:10TO8:9" depart="35"  departLane="best" departSpeed="max"/>
    <vehicle id="44" type="typeHuman" route="17:16TO12:13" depart="36"  departLane="best" departSpeed="max"/>
    <vehicle id="45" type="typeHuman" route="7:5TO18:19" depart="40"  departLane="best" departSpeed="max"/>
    <vehicle id="46" type="typeHuman" route="7:5TO14:15" depart="40"  departLane="best" departSpeed="max"/>
    <vehicle id="47" type="typeHuman" route="7:5TO14:15" depart="41"  departLane="best" departSpeed="max"/>
    <vehicle id="48" type="typeHuman" route="15:14TO10:11" depart="42"  departLane="best" departSpeed="max"/>
    <vehicle id="49" type="typeHuman" route="13:12TO18:19" depart="43"  departLane="best" departSpeed="max"/>
    <vehicle id="50" type="typeHuman" route="6:4TO16:17" depart="44"  departLane="best" departSpeed="max"/>
    <vehicle id="51" type="typeHuman" route="7:5TO8:9" depart="44"  departLane="best" departSpeed="max"/>
    <vehicle id="52" type="typeHuman" route="6:4TO12:13" depart="46"  departLane="best" departSpeed="max"/>
    <vehicle id="53" type="typeHuman" route="6:4TO14:15" depart="49"  departLane="best" departSpeed="max"/>
    <vehicle id="54" type="typeHuman" route="15:14TO4:6" depart="49"  departLane="best" departSpeed="max"/>
    <vehicle id="55" type="typeHuman" route="13:12TO16:17" depart="51"  departLane="best" departSpeed="max"/>
    <vehicle id="56" type="typeHuman" route="6:4TO10:11" depart="52"  departLane="best" departSpeed="max"/>
    <vehicle id="57" type="typeHuman" route="7:5TO8:9" depart="52"  departLane="best" departSpeed="max"/>
    <vehicle id="58" type="typeHuman" route="6:4TO16:17" depart="53"  departLane="best" departSpeed="max"/>
    <vehicle id="59" type="typeHuman" route="6:4TO14:15" depart="54"  departLane="best" departSpeed="max"/>
    <vehicle id="60" type="typeHuman" route="6:4TO16:17" depart="55"  departLane="best" departSpeed="max"/>
    <vehicle id="61" type="typeHuman" route="7:5TO10:11" depart="55"  departLane="best" departSpeed="max"/>
    <vehicle id="62" type="typeHuman" route="7:5TO14:15" depart="56"  departLane="best" departSpeed="max"/>
    <vehicle id="63" type="typeHuman" route="7:5TO18:19" depart="57"  departLane="best" departSpeed="max"/>
    <vehicle id="64" type="typeHuman" route="6:4TO12:13" depart="58"  departLane="best" departSpeed="max"/>
    <vehicle id="65" type="typeHuman" route="19:18TO4:6" depart="58"  departLane="best" departSpeed="max"/>
    <vehicle id="66" type="typeHuman" route="7:5TO14:15" depart="58"  departLane="best" departSpeed="max"/>
    <vehicle id="67" type="typeHuman" route="15:14TO16:17" depart="59"  departLane="best" departSpeed="max"/>
    <vehicle id="68" type="typeHuman" route="7:5TO18:19" depart="60"  departLane="best" departSpeed="max"/>
    <vehicle id="69" type="typeHuman" route="6:4TO12:13" depart="61"  departLane="best" departSpeed="max"/>
    <vehicle id="70" type="typeHuman" route="6:4TO12:13" depart="62"  departLane="best" departSpeed="max"/>
    <vehicle id="71" type="typeHuman" route="9:8TO5:7" depart="64"  departLane="best" departSpeed="max"/>
    <vehicle id="72" type="typeHuman" route="9:8TO16:17" depart="66"  departLane="best" departSpeed="max"/>
    <vehicle id="73" type="typeHuman" route="17:16TO5:7" depart="67"  departLane="best" departSpeed="max"/>
    <vehicle id="74" type="typeHuman" route="6:4TO8:9" depart="70"  departLane="best" departSpeed="max"/>
    <vehicle id="75" type="typeHuman" route="13:12TO4:6" depart="70"  departLane="best" departSpeed="max"/>
    <vehicle id="76" type="typeHuman" route="17:16TO14:15" depart="70"  departLane="best" departSpeed="max"/>
    <vehicle id="77" type="typeHuman" route="6:4TO14:15" depart="71"  departLane="best" departSpeed="max"/>
    <vehicle id="78" type="typeHuman" route="7:5TO18:19" depart="72"  departLane="best" departSpeed="max"/>
    <vehicle id="79" type="typeHuman" route="9:8TO18:19" depart="73"  departLane="best" departSpeed="max"/>
    <vehicle id="80" type="typeHuman" route="6:4TO8:9" depart="74"  departLane="best" departSpeed="max"/>
    <vehicle id="81" type="typeHuman" route="15:14TO5:7" depart="74"  departLane="best" departSpeed="max"/>
    <vehicle id="82" type="typeHuman" route="19:18TO8:9" depart="74"  departLane="best" departSpeed="max"/>
    <vehicle id="83" type="typeHuman" route="7:5TO14:15" depart="74"  departLane="best" departSpeed="max"/>
    <vehicle id="84" type="typeHuman" route="6:4TO14:15" depart="76"  departLane="best" departSpeed="max"/>
    <vehicle id="85" type="typeHuman" route="9:8TO4:6" depart="76"  departLane="best" departSpeed="max"/>
    <vehicle id="86" type="typeHuman" route="7:5TO10:11" depart="76"  departLane="best" departSpeed="max"/>
    <vehicle id="87" type="typeHuman" route="17:16TO14:15" depart="78"  departLane="best" departSpeed="max"/>
    <vehicle id="88" type="typeHuman" route="7:5TO10:11" depart="80"  departLane="best" departSpeed="max"/>
    <vehicle id="89" type="typeHuman" route="7:5TO16:17" depart="84"  departLane="best" departSpeed="max"/>
    <vehicle id="90" type="typeHuman" route="6:4TO10:11" depart="86"  departLane="best" departSpeed="max"/>
    <vehicle id="91" type="typeHuman" route="6:4TO8:9" depart="86"  departLane="best" departSpeed="max"/>
    <vehicle id="92" type="typeHuman" route="6:4TO18:19" depart="86"  departLane="best" departSpeed="max"/>
    <vehicle id="93" type="typeHuman" route="7:5TO8:9" depart="87"  departLane="best" departSpeed="max"/>
    <vehicle id="94" type="typeHuman" route="13:12TO10:11" depart="91"  departLane="best" departSpeed="max"/>
    <vehicle id="95" type="typeHuman" route="7:5TO16:17" depart="91"  departLane="best" departSpeed="max"/>
    <vehicle id="96" type="typeHuman" route="17:16TO12:13" depart="92"  departLane="best" departSpeed="max"/>
    <vehicle id="97" type="typeHuman" route="7:5TO14:15" depart="92"  departLane="best" departSpeed="max"/>
    <vehicle id="98" type="typeHuman" route="7:5TO16:17" depart="93"  departLane="best" departSpeed="max"/>
    <vehicle id="99" type="typeHuman" route="15:14TO8:9" depart="94"  departLane="best" departSpeed="max"/>
    <vehicle id="100" type="typeHuman" route="9:8TO5:7" depart="97"  departLane="best" departSpeed="max"/>
    <vehicle id="101" type="typeHuman" route="7:5TO8:9" depart="99"  departLane="best" departSpeed="max"/>
    <vehicle id="102" type="typeHuman" route="6:4TO8:9" depart="101"  departLane="best" departSpeed="max"/>
    <vehicle id="103" type="typeHuman" route="7:5TO18:19" depart="101"  departLane="best" departSpeed="max"/>
    <vehicle id="104" type="typeHuman" route="17:16TO14:15" depart="102"  departLane="best" departSpeed="max"/>
    <vehicle id="105" type="typeHuman" route="7:5TO4:6" depart="103"  departLane="best" departSpeed="max"/>
    <vehicle id="106" type="typeHuman" route="11:10TO4:6" depart="104"  departLane="best" departSpeed="max"/>
    <vehicle id="107" type="typeHuman" route="7:5TO16:17" depart="104"  departLane="best" departSpeed="max"/>
    <vehicle id="108" type="typeHuman" route="6:4TO16:17" depart="105"  departLane="best" departSpeed="max"/>
    <vehicle id="109" type="typeHuman" route="7:5TO12:13" depart="105"  departLane="best" departSpeed="max"/>
    <vehicle id="110" type="typeHuman" route="19:18TO10:11" depart="106"  departLane="best" departSpeed="max"/>
    <vehicle id="111" type="typeHuman" route="7:5TO14:15" depart="106"  departLane="best" departSpeed="max"/>
    <vehicle id="112" type="typeHuman" route="6:4TO16:17" depart="110"  departLane="best" departSpeed="max"/>
    <vehicle id="113" type="typeHuman" route="7:5TO10:11" depart="110"  departLane="best" departSpeed="max"/>
    <vehicle id="114" type="typeHuman" route="7:5TO14:15" depart="110"  departLane="best" departSpeed="max"/>
    <vehicle id="115" type="typeHuman" route="9:8TO4:6" depart="112"  departLane="best" departSpeed="max"/>
    <vehicle id="116" type="typeHuman" route="6:4TO16:17" depart="113"  departLane="best" departSpeed="max"/>
    <vehicle id="117" type="typeHuman" route="6:4TO14:15" depart="113"  departLane="best" departSpeed="max"/>
    <vehicle id="118" type="typeHuman" route="17:16TO10:11" depart="113"  departLane="best" departSpeed="max"/>
    <vehicle id="119" type="typeHuman" route="17:16TO12:13" depart="113"  departLane="best" departSpeed="max"/>
    <vehicle id="120" type="typeHuman" route="17:16TO8:9" depart="114"  departLane="best" departSpeed="max"/>
    <vehicle id="121" type="typeHuman" route="7:5TO4:6" depart="118"  departLane="best" departSpeed="max"/>
    <vehicle id="122" type="typeHuman" route="9:8TO12:13" depart="119"  departLane="best" departSpeed="max"/>
    <vehicle id="123" type="typeHuman" route="15:14TO10:11" depart="121"  departLane="best" departSpeed="max"/>
    <vehicle id="124" type="typeHuman" route="7:5TO18:19" depart="122"  departLane="best" departSpeed="max"/>
    <vehicle id="125" type="typeHuman" route="15:14TO10:11" depart="123"  departLane="best" departSpeed="max"/>
    <vehicle id="126" type="typeHuman" route="13:12TO14:15" depart="124"  departLane="best" departSpeed="max"/>
    <vehicle id="127" type="typeHuman" route="15:14TO16:17" depart="124"  departLane="best" departSpeed="max"/>
    <vehicle id="128" type="typeHuman" route="19:18TO5:7" depart="124"  departLane="best" departSpeed="max"/>
    <vehicle id="129" type="typeHuman" route="6:4TO12:13" depart="125"  departLane="best" departSpeed="max"/>
    <vehicle id="130" type="typeHuman" route="7:5TO18:19" depart="125"  departLane="best" departSpeed="max"/>
    <vehicle id="131" type="typeHuman" route="9:8TO18:19" depart="127"  departLane="best" departSpeed="max"/>
    <vehicle id="132" type="typeHuman" route="6:4TO12:13" depart="129"  departLane="best" departSpeed="max"/>
    <vehicle id="133" type="typeHuman" route="11:10TO12:13" depart="129"  departLane="best" departSpeed="max"/>
    <vehicle id="134" type="typeHuman" route="6:4TO14:15" depart="131"  departLane="best" departSpeed="max"/>
    <vehicle id="135" type="typeHuman" route="15:14TO16:17" depart="133"  departLane="best" departSpeed="max"/>
    <vehicle id="136" type="typeHuman" route="13:12TO8:9" depart="134"  departLane="best" departSpeed="max"/>
    <vehicle id="137" type="typeHuman" route="11:10TO4:6" depart="137"  departLane="best" departSpeed="max"/>
    <vehicle id="138" type="typeHuman" route="19:18TO4:6" depart="137"  departLane="best" departSpeed="max"/>
    <vehicle id="139" type="typeHuman" route="6:4TO10:11" depart="138"  departLane="best" departSpeed="max"/>
    <vehicle id="140" type="typeHuman" route="6:4TO12:13" depart="138"  departLane="best" departSpeed="max"/>
    <vehicle id="141" type="typeHuman" route="9:8TO10:11" depart="139"  departLane="best" departSpeed="max"/>
    <vehicle id="142" type="typeHuman" route="15:14TO5:7" depart="139"  departLane="best" departSpeed="max"/>
    <vehicle id="143" type="typeHuman" route="15:14TO10:11" depart="139"  departLane="best" departSpeed="max"/>
    <vehicle id="144" type="typeHuman" route="19:18TO8:9" depart="140"  departLane="best" departSpeed="max"/>
    <vehicle id="145" type="typeHuman" route="7:5TO14:15" depart="140"  departLane="best" departSpeed="max"/>
    <vehicle id="146" type="typeHuman" route="6:4TO18:19" depart="141"  departLane="best" departSpeed="max"/>
    <vehicle id="147" type="typeHuman" route="17:16TO5:7" depart="142"  departLane="best" departSpeed="max"/>
    <vehicle id="148" type="typeHuman" route="7:5TO14:15" depart="142"  departLane="best" departSpeed="max"/>
    <vehicle id="149" type="typeHuman" route="6:4TO8:9" depart="144"  departLane="best" departSpeed="max"/>
    <vehicle id="150" type="typeHuman" route="7:5TO10:11" depart="144"  departLane="best" departSpeed="max"/>
    <vehicle id="151" type="typeHuman" route="6:4TO16:17" depart="145"  departLane="best" departSpeed="max"/>
    <vehicle id="152" type="typeHuman" route="6:4TO5:7" depart="145"  departLane="best" departSpeed="max"/>
    <vehicle id="153" type="typeHuman" route="7:5TO8:9" depart="147"  departLane="best" departSpeed="max"/>
    <vehicle id="154" type="typeHuman" route="17:16TO18:19" depart="148"  departLane="best" departSpeed="max"/>
    <vehicle id="155" type="typeHuman" route="19:18TO5:7" depart="148"  departLane="best" departSpeed="max"/>
    <vehicle id="156" type="typeHuman" route="13:12TO16:17" depart="149"  departLane="best" departSpeed="max"/>
    <vehicle id="157" type="typeHuman" route="7:5TO18:19" depart="149"  departLane="best" departSpeed="max"/>
    <vehicle id="158" type="typeHuman" route="7:5TO16:17" depart="151"  departLane="best" departSpeed="max"/>
    <vehicle id="159" type="typeHuman" route="6:4TO14:15" depart="153"  departLane="best" departSpeed="max"/>
    <vehicle id="160" type="typeHuman" route="13:12TO18:19" depart="153"  departLane="best" departSpeed="max"/>
    <vehicle id="161" type="typeHuman" route="6:4TO5:7" depart="155"  departLane="best" departSpeed="max"/>
    <vehicle id="162" type="typeHuman" route="11:10TO4:6" depart="156"  departLane="best" departSpeed="max"/>
    <vehicle id="163" type="typeHuman" route="6:4TO18:19" depart="158"  departLane="best" departSpeed="max"/>
    <vehicle id="164" type="typeHuman" route="17:16TO4:6" depart="158"  departLane="best" departSpeed="max"/>
    <vehicle id="165" type="typeHuman" route="19:18TO10:11" depart="158"  departLane="best" departSpeed="max"/>
    <vehicle id="166" type="typeHuman" route="7:5TO4:6" depart="159"  departLane="best" departSpeed="max"/>
    <vehicle id="167" type="typeHuman" route="7:5TO10:11" depart="160"  departLane="best" departSpeed="max"/>
    <vehicle id="168" type="typeHuman" route="17:16TO12:13" depart="161"  departLane="best" departSpeed="max"/>
    <vehicle id="169" type="typeHuman" route="6:4TO12:13" depart="163"  departLane="best" departSpeed="max"/>
    <vehicle id="170" type="typeHuman" route="9:8TO12:13" depart="165"  departLane="best" departSpeed="max"/>
    <vehicle id="171" type="typeHuman" route="11:10TO18:19" depart="172"  departLane="best" departSpeed="max"/>
    <vehicle id="172" type="typeHuman" route="6:4TO8:9" depart="174"  departLane="best" departSpeed="max"/>
    <vehicle id="173" type="typeHuman" route="7:5TO14:15" depart="174"  departLane="best" departSpeed="max"/>
    <vehicle id="174" type="typeHuman" route="7:5TO10:11" depart="177"  departLane="best" departSpeed="max"/>
    <vehicle id="175" type="typeHuman" route="11:10TO18:19" depart="178"  departLane="best" departSpeed="max"/>
    <vehicle id="176" type="typeHuman" route="7:5TO14:15" depart="181"  departLane="best" departSpeed="max"/>
    <vehicle id="177" type="typeHuman" route="17:16TO12:13" depart="182"  departLane="best" departSpeed="max"/>
    <vehicle id="178" type="typeHuman" route="19:18TO16:17" depart="182"  departLane="best" departSpeed="max"/>
    <vehicle id="179" type="typeHuman" route="13:12TO16:17" depart="185"  departLane="best" departSpeed="max"/>
    <vehicle id="180" type="typeHuman" route="7:5TO18:19" depart="187"  departLane="best" departSpeed="max"/>
    <vehicle id="181" type="typeHuman" route="7:5TO12:13" depart="187"  departLane="best" departSpeed="max"/>
    <vehicle id="182" type="typeHuman" route="11:10TO8:9" depart="188"  departLane="best" departSpeed="max"/>
    <vehicle id="183" type="typeHuman" route="15:14TO5:7" depart="188"  departLane="best" departSpeed="max"/>
    <vehicle id="184" type="typeHuman" route="6:4TO14:15" depart="189"  departLane="best" departSpeed="max"/>
    <vehicle id="185" type="typeHuman" route="11:10TO14:15" depart="189"  departLane="best" departSpeed="max"/>
    <vehicle id="186" type="typeHuman" route="17:16TO10:11" depart="190"  departLane="best" departSpeed="max"/>
    <vehicle id="187" type="typeHuman" route="7:5TO14:15" depart="190"  departLane="best" departSpeed="max"/>
    <vehicle id="188" type="typeHuman" route="11:10TO8:9" depart="192"  departLane="best" departSpeed="max"/>
    <vehicle id="189" type="typeHuman" route="19:18TO14:15" depart="193"  departLane="best" departSpeed="max"/>
    <vehicle id="190" type="typeHuman" route="9:8TO18:19" depart="194"  departLane="best" departSpeed="max"/>
    <vehicle id="191" type="typeHuman" route="11:10TO14:15" depart="194"  departLane="best" departSpeed="max"/>
    <vehicle id="192" type="typeHuman" route="6:4TO16:17" depart="197"  departLane="best" departSpeed="max"/>
    <vehicle id="193" type="typeHuman" route="9:8TO18:19" depart="197"  departLane="best" departSpeed="max"/>
    <vehicle id="194" type="typeHuman" route="17:16TO18:19" depart="197"  departLane="best" departSpeed="max"/>
    <vehicle id="195" type="typeHuman" route="6:4TO8:9" depart="198"  departLane="best" departSpeed="max"/>
    <vehicle id="196" type="typeHuman" route="19:18TO10:11" depart="198"  departLane="best" departSpeed="max"/>
    <vehicle id="197" type="typeHuman" route="7:5TO18:19" depart="199"  departLane="best" departSpeed="max"/>
    <vehicle id="198" type="typeHuman" route="6:4TO16:17" depart="200"  departLane="best" departSpeed="max"/>
    <vehicle id="199" type="typeHuman" route="6:4TO14:15" depart="200"  departLane="best" departSpeed="max"/>
    <vehicle id="200" type="typeHuman" route="9:8TO16:17" depart="200"  departLane="best" departSpeed="max"/>
    <vehicle id="201" type="typeHuman" route="9:8TO14:15" depart="200"  departLane="best" departSpeed="max"/>
    <vehicle id="202" type="typeHuman" route="7:5TO4:6" depart="200"  departLane="best" departSpeed="max"/>
    <vehicle id="203" type="typeHuman" route="7:5TO14:15" depart="201"  departLane="best" departSpeed="max"/>
    <vehicle id="204" type="typeHuman" route="6:4TO18:19" depart="202"  departLane="best" departSpeed="max"/>
    <vehicle id="205" type="typeHuman" route="7:5TO8:9" depart="202"  departLane="best" departSpeed="max"/>
    <vehicle id="206" type="typeHuman" route="7:5TO16:17" depart="202"  departLane="best" departSpeed="max"/>
    <vehicle id="207" type="typeHuman" route="6:4TO10:11" depart="203"  departLane="best" departSpeed="max"/>
    <vehicle id="208" type="typeHuman" route="6:4TO12:13" depart="203"  departLane="best" departSpeed="max"/>
    <vehicle id="209" type="typeHuman" route="13:12TO8:9" depart="203"  departLane="best" departSpeed="max"/>
    <vehicle id="210" type="typeHuman" route="19:18TO14:15" depart="204"  departLane="best" departSpeed="max"/>
    <vehicle id="211" type="typeHuman" route="7:5TO12:13" depart="204"  departLane="best" departSpeed="max"/>
    <vehicle id="212" type="typeHuman" route="15:14TO8:9" depart="205"  departLane="best" departSpeed="max"/>
    <vehicle id="213" type="typeHuman" route="6:4TO12:13" depart="206"  departLane="best" departSpeed="max"/>
    <vehicle id="214" type="typeHuman" route="9:8TO10:11" depart="206"  departLane="best" departSpeed="max"/>
    <vehicle id="215" type="typeHuman" route="17:16TO4:6" depart="208"  departLane="best" departSpeed="max"/>
    <vehicle id="216" type="typeHuman" route="7:5TO8:9" depart="208"  departLane="best" departSpeed="max"/>
    <vehicle id="217" type="typeHuman" route="7:5TO4:6" depart="209"  departLane="best" departSpeed="max"/>
    <vehicle id="218" type="typeHuman" route="9:8TO10:11" depart="210"  departLane="best" departSpeed="max"/>
    <vehicle id="219" type="typeHuman" route="6:4TO8:9" depart="212"  departLane="best" departSpeed="max"/>
    <vehicle id="220" type="typeHuman" route="6:4TO18:19" depart="214"  departLane="best" departSpeed="max"/>
    <vehicle id="221" type="typeHuman" route="6:4TO10:11" depart="215"  departLane="best" departSpeed="max"/>
    <vehicle id="222" type="typeHuman" route="6:4TO8:9" depart="215"  departLane="best" departSpeed="max"/>
    <vehicle id="223" type="typeHuman" route="9:8TO14:15" depart="215"  departLane="best" departSpeed="max"/>
    <vehicle id="224" type="typeHuman" route="17:16TO4:6" depart="215"  departLane="best" departSpeed="max"/>
    <vehicle id="225" type="typeHuman" route="7:5TO12:13" depart="216"  departLane="best" departSpeed="max"/>
    <vehicle id="226" type="typeHuman" route="17:16TO10:11" depart="218"  departLane="best" departSpeed="max"/>
    <vehicle id="227" type="typeHuman" route="6:4TO12:13" depart="219"  departLane="best" departSpeed="max"/>
    <vehicle id="228" type="typeHuman" route="15:14TO16:17" depart="220"  departLane="best" departSpeed="max"/>
    <vehicle id="229" type="typeHuman" route="7:5TO4:6" depart="220"  departLane="best" departSpeed="max"/>
    <vehicle id="230" type="typeHuman" route="19:18TO8:9" depart="221"  departLane="best" departSpeed="max"/>
    <vehicle id="231" type="typeHuman" route="7:5TO14:15" depart="222"  departLane="best" departSpeed="max"/>
    <vehicle id="232" type="typeHuman" route="11:10TO16:17" depart="223"  departLane="best" departSpeed="max"/>
    <vehicle id="233" type="typeHuman" route="9:8TO12:13" depart="224"  departLane="best" departSpeed="max"/>
    <vehicle id="234" type="typeHuman" route="11:10TO16:17" depart="224"  departLane="best" departSpeed="max"/>
    <vehicle id="235" type="typeHuman" route="6:4TO12:13" depart="225"  departLane="best" departSpeed="max"/>
    <vehicle id="236" type="typeHuman" route="11:10TO16:17" depart="228"  departLane="best" departSpeed="max"/>
    <vehicle id="237" type="typeHuman" route="7:5TO10:11" depart="228"  departLane="best" departSpeed="max"/>