<?xml version="1.0"?>
<additional>
	<inductionLoop id="0" lane="b0:b1_0" pos="-6" freq="300" file="loops.out"/>
	<inductionLoop id="1" lane="b0:b1_0" pos="-18" freq="300" file="loops.out"/>
	<inductionLoop id="2" lane="b1:b2_0" pos="-6" freq="300" file="loops.out"/>
	<inductionLoop id="3" lane="b1:b2_0" pos="-18" freq="300" file="loops.out"/>
	<inductionLoop id="4" lane="e2:d2_2" pos="-6" freq="300" file="loops.out"/>
	<inductionLoop id="5" lane="e2:d2_2" pos="-18" freq="300" file="loops.out"/>
	<inductionLoop id="6" lane="d2:d3_0" pos="-6" freq="300" file="loops.out"/>
	<inductionLoop id="7" lane="d2:d3_0" pos="-18" freq="300" file="loops.out"/>
	<inductionLoop id="8" lane="b2:b3_0" pos="-6" freq="300" file="loops.out"/>
	<inductionLoop id="9" lane="b2:b3_0" pos="-18" freq="300" file="loops.out"/>
	<inductionLoop id="10" lane="c2:b2_1" pos="-6" freq="300" file="loops.out"/>
	<inductionLoop id="11" lane="c2:b2_1" pos="-18" freq="300" file="loops.out"/>
	<inductionLoop id="12" lane="c2:b2_0" pos="-6" freq="300" file="loops.out"/>
	<inductionLoop id="13" lane="c2:b2_0" pos="-18" freq="300" file="loops.out"/>
	<inductionLoop id="14" lane="c2:b2_3" pos="-6" freq="300" file="loops.out"/>
	<inductionLoop id="15" lane="c2:b2_3" pos="-18" freq="300" file="loops.out"/>
	<inductionLoop id="16" lane="c2:b2_2" pos="-6" freq="300" file="loops.out"/>
	<inductionLoop id="17" lane="c2:b2_2" pos="-18" freq="300" file="loops.out"/>
	<inductionLoop id="18" lane="c3:c2_0" pos="-6" freq="300" file="loops.out"/>
	<inductionLoop id="19" lane="c3:c2_0" pos="-18" freq="300" file="loops.out"/>
	<inductionLoop id="20" lane="a3:b3_1" pos="-6" freq="300" file="loops.out"/>
	<inductionLoop id="21" lane="a3:b3_1" pos="-18" freq="300" file="loops.out"/>
	<inductionLoop id="22" lane="a3:b3_0" pos="-6" freq="300" file="loops.out"/>
	<inductionLoop id="23" lane="a3:b3_0" pos="-18" freq="300" file="loops.out"/>
	<inductionLoop id="24" lane="a3:b3_3" pos="-6" freq="300" file="loops.out"/>
	<inductionLoop id="25" lane="a3:b3_3" pos="-18" freq="300" file="loops.out"/>
	<inductionLoop id="26" lane="a3:b3_2" pos="-6" freq="300" file="loops.out"/>
	<inductionLoop id="27" lane="a3:b3_2" pos="-18" freq="300" file="loops.out"/>
	<inductionLoop id="28" lane="b1:c1_1" pos="-6" freq="300" file="loops.out"/>
	<inductionLoop id="29" lane="b1:c1_1" pos="-18" freq="300" file="loops.out"/>
	<inductionLoop id="30" lane="b1:c1_0" pos="-6" freq="300" file="loops.out"/>
	<inductionLoop id="31" lane="b1:c1_0" pos="-18" freq="300" file="loops.out"/>
	<inductionLoop id="32" lane="b1:c1_3" pos="-6" freq="300" file="loops.out"/>
	<inductionLoop id="33" lane="b1:c1_3" pos="-18" freq="300" file="loops.out"/>
	<inductionLoop id="34" lane="b1:c1_2" pos="-6" freq="300" file="loops.out"/>
	<inductionLoop id="35" lane="b1:c1_2" pos="-18" freq="300" file="loops.out"/>
	<inductionLoop id="36" lane="e2:d2_1" pos="-6" freq="300" file="loops.out"/>
	<inductionLoop id="37" lane="e2:d2_1" pos="-18" freq="300" file="loops.out"/>
	<inductionLoop id="38" lane="c3:d3_3" pos="-6" freq="300" file="loops.out"/>
	<inductionLoop id="39" lane="c3:d3_3" pos="-18" freq="300" file="loops.out"/>
	<inductionLoop id="40" lane="c2:c1_0" pos="-6" freq="300" file="loops.out"/>
	<inductionLoop id="41" lane="c2:c1_0" pos="-18" freq="300" file="loops.out"/>
	<inductionLoop id="42" lane="c3:d3_2" pos="-6" freq="300" file="loops.out"/>
	<inductionLoop id="43" lane="c3:d3_2" pos="-18" freq="300" file="loops.out"/>
	<inductionLoop id="44" lane="d2:c2_1" pos="-6" freq="300" file="loops.out"/>
	<inductionLoop id="45" lane="d2:c2_1" pos="-18" freq="300" file="loops.out"/>
	<inductionLoop id="46" lane="d0:d1_0" pos="-6" freq="300" file="loops.out"/>
	<inductionLoop id="47" lane="d0:d1_0" pos="-18" freq="300" file="loops.out"/>
	<inductionLoop id="48" lane="d2:c2_3" pos="-6" freq="300" file="loops.out"/>
	<inductionLoop id="49" lane="d2:c2_3" pos="-18" freq="300" file="loops.out"/>
	<inductionLoop id="50" lane="d2:c2_2" pos="-6" freq="300" file="loops.out"/>
	<inductionLoop id="51" lane="d2:c2_2" pos="-18" freq="300" file="loops.out"/>
	<inductionLoop id="52" lane="c1:d1_1" pos="-6" freq="300" file="loops.out"/>
	<inductionLoop id="53" lane="c1:d1_1" pos="-18" freq="300" file="loops.out"/>
	<inductionLoop id="54" lane="c1:d1_0" pos="-6" freq="300" file="loops.out"/>
	<inductionLoop id="55" lane="c1:d1_0" pos="-18" freq="300" file="loops.out"/>
	<inductionLoop id="56" lane="c1:d1_3" pos="-6" freq="300" file="loops.out"/>
	<inductionLoop id="57" lane="c1:d1_3" pos="-18" freq="300" file="loops.out"/>
	<inductionLoop id="58" lane="c1:d1_2" pos="-6" freq="300" file="loops.out"/>
	<inductionLoop id="59" lane="c1:d1_2" pos="-18" freq="300" file="loops.out"/>
	<inductionLoop id="60" lane="e2:d2_0" pos="-6" freq="300" file="loops.out"/>
	<inductionLoop id="61" lane="e2:d2_0" pos="-18" freq="300" file="loops.out"/>
	<inductionLoop id="62" lane="a1:b1_1" pos="-6" freq="300" file="loops.out"/>
	<inductionLoop id="63" lane="a1:b1_1" pos="-18" freq="300" file="loops.out"/>
	<inductionLoop id="64" lane="a1:b1_0" pos="-6" freq="300" file="loops.out"/>
	<inductionLoop id="65" lane="a1:b1_0" pos="-18" freq="300" file="loops.out"/>
	<inductionLoop id="66" lane="a1:b1_3" pos="-6" freq="300" file="loops.out"/>
	<inductionLoop id="67" lane="a1:b1_3" pos="-18" freq="300" file="loops.out"/>
	<inductionLoop id="68" lane="a1:b1_2" pos="-6" freq="300" file="loops.out"/>
	<inductionLoop id="69" lane="a1:b1_2" pos="-18" freq="300" file="loops.out"/>
	<inductionLoop id="70" lane="b3:c3_1" pos="-6" freq="300" file="loops.out"/>
	<inductionLoop id="71" lane="b3:c3_1" pos="-18" freq="300" file="loops.out"/>
	<inductionLoop id="72" lane="b3:c3_0" pos="-6" freq="300" file="loops.out"/>
	<inductionLoop id="73" lane="b3:c3_0" pos="-18" freq="300" file="loops.out"/>
	<inductionLoop id="74" lane="b3:c3_3" pos="-6" freq="300" file="loops.out"/>
	<inductionLoop id="75" lane="b3:c3_3" pos="-18" freq="300" file="loops.out"/>
	<inductionLoop id="76" lane="b3:c3_2" pos="-6" freq="300" file="loops.out"/>
	<inductionLoop id="77" lane="b3:c3_2" pos="-18" freq="300" file="loops.out"/>
	<inductionLoop id="78" lane="c3:d3_0" pos="-6" freq="300" file="loops.out"/>
	<inductionLoop id="79" lane="c3:d3_0" pos="-18" freq="300" file="loops.out"/>
	<inductionLoop id="80" lane="d1:d2_0" pos="-6" freq="300" file="loops.out"/>
	<inductionLoop id="81" lane="d1:d2_0" pos="-18" freq="300" file="loops.out"/>
	<inductionLoop id="82" lane="c3:d3_1" pos="-6" freq="300" file="loops.out"/>
	<inductionLoop id="83" lane="c3:d3_1" pos="-18" freq="300" file="loops.out"/>
	<inductionLoop id="84" lane="e2:d2_3" pos="-6" freq="300" file="loops.out"/>
	<inductionLoop id="85" lane="e2:d2_3" pos="-18" freq="300" file="loops.out"/>
	<inductionLoop id="86" lane="d2:c2_0" pos="-6" freq="300" file="loops.out"/>
	<inductionLoop id="87" lane="d2:c2_0" pos="-18" freq="300" file="loops.out"/>
	<inductionLoop id="88" lane="c4:c3_0" pos="-6" freq="300" file="loops.out"/>
	<inductionLoop id="89" lane="c4:c3_0" pos="-18" freq="300" file="loops.out"/>
</additional>
