<?xml version="1.0" encoding="UTF-8"?>

<!-- generated on Fri 15 Dec 2017 13:35:46 GMT by Netedit Version 0.30.0
<?xml version="1.0" encoding="UTF-8"?>

<configuration xmlns:xsi="http://www.w3.org/2001/XMLSchema-instance" xsi:noNamespaceSchemaLocation="http://sumo.dlr.de/xsd/netconvertConfiguration.xsd">

    <input>
        <sumo-net-file value="manhattan.net.xml"/>
    </input>

    <output>
        <output-file value="manhattan.net.xml"/>
    </output>

    <processing>
        <no-turnarounds value="true"/>
        <offset.disable-normalization value="true"/>
        <lefthand value="false"/>
        <junctions.corner-detail value="0"/>
        <rectangular-lane-cut value="false"/>
    </processing>

</configuration>
-->

<net version="0.27" xmlns:xsi="http://www.w3.org/2001/XMLSchema-instance" xsi:noNamespaceSchemaLocation="http://sumo.dlr.de/xsd/net_file.xsd">

    <location netOffset="0.00,0.00" convBoundary="0.00,0.00,480.00,480.00" origBoundary="0.00,0.00,480.00,480.00" projParameter="!"/>

    <type id="uMajor" priority="3" numLanes="4" speed="11.18"/>
    <type id="uMinor" priority="2" numLanes="1" speed="11.18"/>

    <edge id=":b1_0" function="internal">
        <lane id=":b1_0_0" index="0" speed="11.18" length="5.00" shape="131.55,115.25 131.74,116.61 132.32,117.57 133.29,118.16 134.65,118.35"/>
    </edge>
    <edge id=":b1_1" function="internal">
        <lane id=":b1_1_0" index="0" speed="11.18" length="6.20" shape="131.55,115.25 131.55,121.45"/>
        <lane id=":b1_1_1" index="1" speed="11.18" length="6.20" shape="128.25,115.25 128.25,121.45"/>
        <lane id=":b1_1_2" index="2" speed="11.18" length="6.20" shape="124.95,115.25 124.95,121.45"/>
        <lane id=":b1_1_3" index="3" speed="11.18" length="6.20" shape="121.65,115.25 121.65,121.45"/>
    </edge>
    <edge id=":b1_5" function="internal">
        <lane id=":b1_5_0" index="0" speed="11.18" length="16.10" shape="118.55,118.35 134.65,118.35"/>
    </edge>
    <edge id=":b1_6" function="internal">
        <lane id=":b1_6_0" index="0" speed="11.18" length="9.43" shape="118.55,118.35 124.24,118.54 128.30,119.12 130.74,120.09 131.55,121.45"/>
        <lane id=":b1_6_1" index="1" speed="11.18" length="9.43" shape="118.55,118.35 122.79,118.54 125.83,119.12 127.64,120.09 128.25,121.45"/>
        <lane id=":b1_6_2" index="2" speed="11.18" length="9.43" shape="118.55,118.35 121.35,118.54 123.35,119.12 124.55,120.09 124.95,121.45"/>
        <lane id=":b1_6_3" index="3" speed="11.18" length="9.43" shape="118.55,118.35 119.91,118.54 120.88,119.12 121.46,120.09 121.65,121.45"/>
    </edge>
    <edge id=":b2_0" function="internal">
        <lane id=":b2_0_0" index="0" speed="11.18" length="6.20" shape="228.45,121.45 228.45,115.25"/>
        <lane id=":b2_0_1" index="1" speed="11.18" length="6.20" shape="231.75,121.45 231.75,115.25"/>
        <lane id=":b2_0_2" index="2" speed="11.18" length="6.20" shape="235.05,121.45 235.05,115.25"/>
        <lane id=":b2_0_3" index="3" speed="11.18" length="6.20" shape="238.35,121.45 238.35,115.25"/>
    </edge>
    <edge id=":b2_4" function="internal">
        <lane id=":b2_4_0" index="0" speed="11.18" length="5.00" shape="238.35,121.45 238.54,120.09 239.12,119.12 240.09,118.54 241.45,118.35"/>
    </edge>
    <edge id=":b2_5" function="internal">
        <lane id=":b2_5_0" index="0" speed="11.18" length="9.43" shape="225.35,118.35 226.71,118.16 227.68,117.57 228.26,116.61 228.45,115.25"/>
        <lane id=":b2_5_1" index="1" speed="11.18" length="9.43" shape="225.35,118.35 228.15,118.16 230.15,117.57 231.35,116.61 231.75,115.25"/>
        <lane id=":b2_5_2" index="2" speed="11.18" length="9.43" shape="225.35,118.35 229.59,118.16 232.62,117.57 234.44,116.61 235.05,115.25"/>
        <lane id=":b2_5_3" index="3" speed="11.18" length="9.43" shape="225.35,118.35 231.04,118.16 235.10,117.57 237.54,116.61 238.35,115.25"/>
    </edge>
    <edge id=":b2_9" function="internal">
        <lane id=":b2_9_0" index="0" speed="11.18" length="16.10" shape="225.35,118.35 241.45,118.35"/>
    </edge>
    <edge id=":b3_0" function="internal">
        <lane id=":b3_0_0" index="0" speed="11.18" length="5.00" shape="371.55,115.25 371.74,116.61 372.33,117.58 373.29,118.16 374.65,118.35"/>
    </edge>
    <edge id=":b3_1" function="internal">
        <lane id=":b3_1_0" index="0" speed="11.18" length="6.20" shape="371.55,115.25 371.55,121.45"/>
        <lane id=":b3_1_1" index="1" speed="11.18" length="6.20" shape="368.25,115.25 368.25,121.45"/>
        <lane id=":b3_1_2" index="2" speed="11.18" length="6.20" shape="364.95,115.25 364.95,121.45"/>
        <lane id=":b3_1_3" index="3" speed="11.18" length="6.20" shape="361.65,115.25 361.65,121.45"/>
    </edge>
    <edge id=":b3_5" function="internal">
        <lane id=":b3_5_0" index="0" speed="11.18" length="16.10" shape="358.55,118.35 374.65,118.35"/>
    </edge>
    <edge id=":b3_6" function="internal">
        <lane id=":b3_6_0" index="0" speed="11.18" length="9.43" shape="358.55,118.35 364.24,118.54 368.30,119.12 370.74,120.09 371.55,121.45"/>
        <lane id=":b3_6_1" index="1" speed="11.18" length="9.43" shape="358.55,118.35 362.79,118.54 365.82,119.12 367.64,120.09 368.25,121.45"/>
        <lane id=":b3_6_2" index="2" speed="11.18" length="9.43" shape="358.55,118.35 361.35,118.54 363.35,119.12 364.55,120.09 364.95,121.45"/>
        <lane id=":b3_6_3" index="3" speed="11.18" length="9.43" shape="358.55,118.35 359.91,118.54 360.88,119.12 361.46,120.09 361.65,121.45"/>
    </edge>
    <edge id=":c1_0" function="internal">
        <lane id=":c1_0_0" index="0" speed="11.18" length="9.43" shape="134.65,241.65 133.29,241.84 132.32,242.43 131.74,243.39 131.55,244.75"/>
        <lane id=":c1_0_1" index="1" speed="11.18" length="9.43" shape="134.65,241.65 131.85,241.84 129.85,242.43 128.65,243.39 128.25,244.75"/>
        <lane id=":c1_0_2" index="2" speed="11.18" length="9.43" shape="134.65,241.65 130.41,241.84 127.37,242.43 125.56,243.39 124.95,244.75"/>
        <lane id=":c1_0_3" index="3" speed="11.18" length="9.43" shape="134.65,241.65 128.96,241.84 124.90,242.43 122.46,243.39 121.65,244.75"/>
    </edge>
    <edge id=":c1_4" function="internal">
        <lane id=":c1_4_0" index="0" speed="11.18" length="16.10" shape="134.65,241.65 118.55,241.65"/>
    </edge>
    <edge id=":c1_5" function="internal">
        <lane id=":c1_5_0" index="0" speed="11.18" length="6.20" shape="131.55,238.55 131.55,244.75"/>
        <lane id=":c1_5_1" index="1" speed="11.18" length="6.20" shape="128.25,238.55 128.25,244.75"/>
        <lane id=":c1_5_2" index="2" speed="11.18" length="6.20" shape="124.95,238.55 124.95,244.75"/>
        <lane id=":c1_5_3" index="3" speed="11.18" length="6.20" shape="121.65,238.55 121.65,244.75"/>
    </edge>
    <edge id=":c1_9" function="internal">
        <lane id=":c1_9_0" index="0" speed="11.18" length="5.00" shape="121.65,238.55 121.46,239.91 120.88,240.88 119.91,241.46 118.55,241.65"/>
    </edge>
    <edge id=":c2_0" function="internal">
        <lane id=":c2_0_0" index="0" speed="11.18" length="5.00" shape="228.45,244.75 228.26,243.39 227.67,242.42 226.71,241.84 225.35,241.65"/>
    </edge>
    <edge id=":c2_1" function="internal">
        <lane id=":c2_1_0" index="0" speed="11.18" length="6.20" shape="228.45,244.75 228.45,238.55"/>
        <lane id=":c2_1_1" index="1" speed="11.18" length="6.20" shape="231.75,244.75 231.75,238.55"/>
        <lane id=":c2_1_2" index="2" speed="11.18" length="6.20" shape="235.05,244.75 235.05,238.55"/>
        <lane id=":c2_1_3" index="3" speed="11.18" length="6.20" shape="238.35,244.75 238.35,238.55"/>
    </edge>
    <edge id=":c2_5" function="internal">
        <lane id=":c2_5_0" index="0" speed="11.18" length="16.10" shape="241.45,241.65 225.35,241.65"/>
    </edge>
    <edge id=":c2_6" function="internal">
        <lane id=":c2_6_0" index="0" speed="11.18" length="9.43" shape="241.45,241.65 235.76,241.46 231.70,240.88 229.26,239.91 228.45,238.55"/>
        <lane id=":c2_6_1" index="1" speed="11.18" length="9.43" shape="241.45,241.65 237.21,241.46 234.18,240.88 232.36,239.91 231.75,238.55"/>
        <lane id=":c2_6_2" index="2" speed="11.18" length="9.43" shape="241.45,241.65 238.65,241.46 236.65,240.88 235.45,239.91 235.05,238.55"/>
        <lane id=":c2_6_3" index="3" speed="11.18" length="9.43" shape="241.45,241.65 240.09,241.46 239.13,240.88 238.54,239.91 238.35,238.55"/>
    </edge>
    <edge id=":c3_0" function="internal">
        <lane id=":c3_0_0" index="0" speed="11.18" length="9.43" shape="374.65,241.65 373.29,241.84 372.32,242.43 371.74,243.39 371.55,244.75"/>
        <lane id=":c3_0_1" index="1" speed="11.18" length="9.43" shape="374.65,241.65 371.85,241.84 369.85,242.43 368.65,243.39 368.25,244.75"/>
        <lane id=":c3_0_2" index="2" speed="11.18" length="9.43" shape="374.65,241.65 370.41,241.84 367.38,242.43 365.56,243.39 364.95,244.75"/>
        <lane id=":c3_0_3" index="3" speed="11.18" length="9.43" shape="374.65,241.65 368.96,241.84 364.90,242.43 362.46,243.39 361.65,244.75"/>
    </edge>
    <edge id=":c3_4" function="internal">
        <lane id=":c3_4_0" index="0" speed="11.18" length="16.10" shape="374.65,241.65 358.55,241.65"/>
    </edge>
    <edge id=":c3_5" function="internal">
        <lane id=":c3_5_0" index="0" speed="11.18" length="6.20" shape="371.55,238.55 371.55,244.75"/>
        <lane id=":c3_5_1" index="1" speed="11.18" length="6.20" shape="368.25,238.55 368.25,244.75"/>
        <lane id=":c3_5_2" index="2" speed="11.18" length="6.20" shape="364.95,238.55 364.95,244.75"/>
        <lane id=":c3_5_3" index="3" speed="11.18" length="6.20" shape="361.65,238.55 361.65,244.75"/>
    </edge>
    <edge id=":c3_9" function="internal">
        <lane id=":c3_9_0" index="0" speed="11.18" length="5.00" shape="361.65,238.55 361.46,239.91 360.87,240.88 359.91,241.46 358.55,241.65"/>
    </edge>
    <edge id=":d1_0" function="internal">
        <lane id=":d1_0_0" index="0" speed="11.18" length="5.00" shape="131.55,355.25 131.74,356.61 132.32,357.58 133.29,358.16 134.65,358.35"/>
    </edge>
    <edge id=":d1_1" function="internal">
        <lane id=":d1_1_0" index="0" speed="11.18" length="6.20" shape="131.55,355.25 131.55,361.45"/>
        <lane id=":d1_1_1" index="1" speed="11.18" length="6.20" shape="128.25,355.25 128.25,361.45"/>
        <lane id=":d1_1_2" index="2" speed="11.18" length="6.20" shape="124.95,355.25 124.95,361.45"/>
        <lane id=":d1_1_3" index="3" speed="11.18" length="6.20" shape="121.65,355.25 121.65,361.45"/>
    </edge>
    <edge id=":d1_5" function="internal">
        <lane id=":d1_5_0" index="0" speed="11.18" length="16.10" shape="118.55,358.35 134.65,358.35"/>
    </edge>
    <edge id=":d1_6" function="internal">
        <lane id=":d1_6_0" index="0" speed="11.18" length="9.43" shape="118.55,358.35 124.24,358.54 128.30,359.13 130.74,360.09 131.55,361.45"/>
        <lane id=":d1_6_1" index="1" speed="11.18" length="9.43" shape="118.55,358.35 122.79,358.54 125.83,359.13 127.64,360.09 128.25,361.45"/>
        <lane id=":d1_6_2" index="2" speed="11.18" length="9.43" shape="118.55,358.35 121.35,358.54 123.35,359.13 124.55,360.09 124.95,361.45"/>
        <lane id=":d1_6_3" index="3" speed="11.18" length="9.43" shape="118.55,358.35 119.91,358.54 120.88,359.13 121.46,360.09 121.65,361.45"/>
    </edge>
    <edge id=":d2_0" function="internal">
        <lane id=":d2_0_0" index="0" speed="11.18" length="6.20" shape="228.45,361.45 228.45,355.25"/>
        <lane id=":d2_0_1" index="1" speed="11.18" length="6.20" shape="231.75,361.45 231.75,355.25"/>
        <lane id=":d2_0_2" index="2" speed="11.18" length="6.20" shape="235.05,361.45 235.05,355.25"/>
        <lane id=":d2_0_3" index="3" speed="11.18" length="6.20" shape="238.35,361.45 238.35,355.25"/>
    </edge>
    <edge id=":d2_4" function="internal">
        <lane id=":d2_4_0" index="0" speed="11.18" length="5.00" shape="238.35,361.45 238.54,360.09 239.12,359.12 240.09,358.54 241.45,358.35"/>
    </edge>
    <edge id=":d2_5" function="internal">
        <lane id=":d2_5_0" index="0" speed="11.18" length="9.43" shape="225.35,358.35 226.71,358.16 227.68,357.58 228.26,356.61 228.45,355.25"/>
        <lane id=":d2_5_1" index="1" speed="11.18" length="9.43" shape="225.35,358.35 228.15,358.16 230.15,357.58 231.35,356.61 231.75,355.25"/>
        <lane id=":d2_5_2" index="2" speed="11.18" length="9.43" shape="225.35,358.35 229.59,358.16 232.62,357.58 234.44,356.61 235.05,355.25"/>
        <lane id=":d2_5_3" index="3" speed="11.18" length="9.43" shape="225.35,358.35 231.04,358.16 235.10,357.58 237.54,356.61 238.35,355.25"/>
    </edge>
    <edge id=":d2_9" function="internal">
        <lane id=":d2_9_0" index="0" speed="11.18" length="16.10" shape="225.35,358.35 241.45,358.35"/>
    </edge>
    <edge id=":d3_0" function="internal">
        <lane id=":d3_0_0" index="0" speed="11.18" length="5.00" shape="371.55,355.25 371.74,356.61 372.33,357.58 373.29,358.16 374.65,358.35"/>
    </edge>
    <edge id=":d3_1" function="internal">
        <lane id=":d3_1_0" index="0" speed="11.18" length="6.20" shape="371.55,355.25 371.55,361.45"/>
        <lane id=":d3_1_1" index="1" speed="11.18" length="6.20" shape="368.25,355.25 368.25,361.45"/>
        <lane id=":d3_1_2" index="2" speed="11.18" length="6.20" shape="364.95,355.25 364.95,361.45"/>
        <lane id=":d3_1_3" index="3" speed="11.18" length="6.20" shape="361.65,355.25 361.65,361.45"/>
    </edge>
    <edge id=":d3_5" function="internal">
        <lane id=":d3_5_0" index="0" speed="11.18" length="16.10" shape="358.55,358.35 374.65,358.35"/>
    </edge>
    <edge id=":d3_6" function="internal">
        <lane id=":d3_6_0" index="0" speed="11.18" length="9.43" shape="358.55,358.35 364.24,358.54 368.30,359.13 370.74,360.09 371.55,361.45"/>
        <lane id=":d3_6_1" index="1" speed="11.18" length="9.43" shape="358.55,358.35 362.79,358.54 365.82,359.13 367.64,360.09 368.25,361.45"/>
        <lane id=":d3_6_2" index="2" speed="11.18" length="9.43" shape="358.55,358.35 361.35,358.54 363.35,359.13 364.55,360.09 364.95,361.45"/>
        <lane id=":d3_6_3" index="3" speed="11.18" length="9.43" shape="358.55,358.35 359.91,358.54 360.88,359.13 361.46,360.09 361.65,361.45"/>
    </edge>

    <edge id="a1:b1" from="a1" to="b1" priority="3" type="uMajor">
        <lane id="a1:b1_0" index="0" speed="11.18" length="115.25" shape="131.55,0.00 131.55,115.25"/>
        <lane id="a1:b1_1" index="1" speed="11.18" length="115.25" shape="128.25,0.00 128.25,115.25"/>
        <lane id="a1:b1_2" index="2" speed="11.18" length="115.25" shape="124.95,0.00 124.95,115.25"/>
        <lane id="a1:b1_3" index="3" speed="11.18" length="115.25" shape="121.65,0.00 121.65,115.25"/>
    </edge>
    <edge id="a3:b3" from="a3" to="b3" priority="3" type="uMajor">
        <lane id="a3:b3_0" index="0" speed="11.18" length="115.25" shape="371.55,0.00 371.55,115.25"/>
        <lane id="a3:b3_1" index="1" speed="11.18" length="115.25" shape="368.25,0.00 368.25,115.25"/>
        <lane id="a3:b3_2" index="2" speed="11.18" length="115.25" shape="364.95,0.00 364.95,115.25"/>
        <lane id="a3:b3_3" index="3" speed="11.18" length="115.25" shape="361.65,0.00 361.65,115.25"/>
    </edge>
    <edge id="b0:b1" from="b0" to="b1" priority="2" type="uMinor">
        <lane id="b0:b1_0" index="0" speed="11.18" length="118.55" shape="0.00,118.35 118.55,118.35"/>
    </edge>
    <edge id="b1:b2" from="b1" to="b2" priority="2" type="uMinor">
        <lane id="b1:b2_0" index="0" speed="11.18" length="90.70" shape="134.65,118.35 225.35,118.35"/>
    </edge>
    <edge id="b1:c1" from="b1" to="c1" priority="3" type="uMajor">
        <lane id="b1:c1_0" index="0" speed="11.18" length="117.10" shape="131.55,121.45 131.55,238.55"/>
        <lane id="b1:c1_1" index="1" speed="11.18" length="117.10" shape="128.25,121.45 128.25,238.55"/>
        <lane id="b1:c1_2" index="2" speed="11.18" length="117.10" shape="124.95,121.45 124.95,238.55"/>
        <lane id="b1:c1_3" index="3" speed="11.18" length="117.10" shape="121.65,121.45 121.65,238.55"/>
    </edge>
    <edge id="b2:a2" from="b2" to="a2" priority="3" type="uMajor">
        <lane id="b2:a2_0" index="0" speed="11.18" length="115.25" shape="228.45,115.25 228.45,0.00"/>
        <lane id="b2:a2_1" index="1" speed="11.18" length="115.25" shape="231.75,115.25 231.75,0.00"/>
        <lane id="b2:a2_2" index="2" speed="11.18" length="115.25" shape="235.05,115.25 235.05,0.00"/>
        <lane id="b2:a2_3" index="3" speed="11.18" length="115.25" shape="238.35,115.25 238.35,0.00"/>
    </edge>
    <edge id="b2:b3" from="b2" to="b3" priority="2" type="uMinor">
        <lane id="b2:b3_0" index="0" speed="11.18" length="117.10" shape="241.45,118.35 358.55,118.35"/>
    </edge>
    <edge id="b3:b4" from="b3" to="b4" priority="2" type="uMinor">
        <lane id="b3:b4_0" index="0" speed="11.18" length="105.35" shape="374.65,118.35 480.00,118.35"/>
    </edge>
    <edge id="b3:c3" from="b3" to="c3" priority="3" type="uMajor">
        <lane id="b3:c3_0" index="0" speed="11.18" length="117.10" shape="371.55,121.45 371.55,238.55"/>
        <lane id="b3:c3_1" index="1" speed="11.18" length="117.10" shape="368.25,121.45 368.25,238.55"/>
        <lane id="b3:c3_2" index="2" speed="11.18" length="117.10" shape="364.95,121.45 364.95,238.55"/>
        <lane id="b3:c3_3" index="3" speed="11.18" length="117.10" shape="361.65,121.45 361.65,238.55"/>
    </edge>
    <edge id="c1:c0" from="c1" to="c0" priority="2" type="uMinor">
        <lane id="c1:c0_0" index="0" speed="11.18" length="118.55" shape="118.55,241.65 0.00,241.65"/>
    </edge>
    <edge id="c1:d1" from="c1" to="d1" priority="3" type="uMajor">
        <lane id="c1:d1_0" index="0" speed="11.18" length="110.50" shape="131.55,244.75 131.55,355.25"/>
        <lane id="c1:d1_1" index="1" speed="11.18" length="110.50" shape="128.25,244.75 128.25,355.25"/>
        <lane id="c1:d1_2" index="2" speed="11.18" length="110.50" shape="124.95,244.75 124.95,355.25"/>
        <lane id="c1:d1_3" index="3" speed="11.18" length="110.50" shape="121.65,244.75 121.65,355.25"/>
    </edge>
    <edge id="c2:b2" from="c2" to="b2" priority="3" type="uMajor">
        <lane id="c2:b2_0" index="0" speed="11.18" length="117.10" shape="228.45,238.55 228.45,121.45"/>
        <lane id="c2:b2_1" index="1" speed="11.18" length="117.10" shape="231.75,238.55 231.75,121.45"/>
        <lane id="c2:b2_2" index="2" speed="11.18" length="117.10" shape="235.05,238.55 235.05,121.45"/>
        <lane id="c2:b2_3" index="3" speed="11.18" length="117.10" shape="238.35,238.55 238.35,121.45"/>
    </edge>
    <edge id="c2:c1" from="c2" to="c1" priority="2" type="uMinor">
        <lane id="c2:c1_0" index="0" speed="11.18" length="90.70" shape="225.35,241.65 134.65,241.65"/>
    </edge>
    <edge id="c3:c2" from="c3" to="c2" priority="2" type="uMinor">
        <lane id="c3:c2_0" index="0" speed="11.18" length="117.10" shape="358.55,241.65 241.45,241.65"/>
    </edge>
    <edge id="c3:d3" from="c3" to="d3" priority="3" type="uMajor">
        <lane id="c3:d3_0" index="0" speed="11.18" length="110.50" shape="371.55,244.75 371.55,355.25"/>
        <lane id="c3:d3_1" index="1" speed="11.18" length="110.50" shape="368.25,244.75 368.25,355.25"/>
        <lane id="c3:d3_2" index="2" speed="11.18" length="110.50" shape="364.95,244.75 364.95,355.25"/>
        <lane id="c3:d3_3" index="3" speed="11.18" length="110.50" shape="361.65,244.75 361.65,355.25"/>
    </edge>
    <edge id="c4:c3" from="c4" to="c3" priority="2" type="uMinor">
        <lane id="c4:c3_0" index="0" speed="11.18" length="105.35" shape="480.00,241.65 374.65,241.65"/>
    </edge>
    <edge id="d0:d1" from="d0" to="d1" priority="2" type="uMinor">
        <lane id="d0:d1_0" index="0" speed="11.18" length="118.55" shape="0.00,358.35 118.55,358.35"/>
    </edge>
    <edge id="d1:d2" from="d1" to="d2" priority="2" type="uMinor">
        <lane id="d1:d2_0" index="0" speed="11.18" length="90.70" shape="134.65,358.35 225.35,358.35"/>
    </edge>
    <edge id="d1:e1" from="d1" to="e1" priority="3" type="uMajor">
        <lane id="d1:e1_0" index="0" speed="11.18" length="118.55" shape="131.55,361.45 131.55,480.00"/>
        <lane id="d1:e1_1" index="1" speed="11.18" length="118.55" shape="128.25,361.45 128.25,480.00"/>
        <lane id="d1:e1_2" index="2" speed="11.18" length="118.55" shape="124.95,361.45 124.95,480.00"/>
        <lane id="d1:e1_3" index="3" speed="11.18" length="118.55" shape="121.65,361.45 121.65,480.00"/>
    </edge>
    <edge id="d2:c2" from="d2" to="c2" priority="3" type="uMajor">
        <lane id="d2:c2_0" index="0" speed="11.18" length="110.50" shape="228.45,355.25 228.45,244.75"/>
        <lane id="d2:c2_1" index="1" speed="11.18" length="110.50" shape="231.75,355.25 231.75,244.75"/>
        <lane id="d2:c2_2" index="2" speed="11.18" length="110.50" shape="235.05,355.25 235.05,244.75"/>
        <lane id="d2:c2_3" index="3" speed="11.18" length="110.50" shape="238.35,355.25 238.35,244.75"/>
    </edge>
    <edge id="d2:d3" from="d2" to="d3" priority="2" type="uMinor">
        <lane id="d2:d3_0" index="0" speed="11.18" length="117.10" shape="241.45,358.35 358.55,358.35"/>
    </edge>
    <edge id="d3:d4" from="d3" to="d4" priority="2" type="uMinor">
        <lane id="d3:d4_0" index="0" speed="11.18" length="105.35" shape="374.65,358.35 480.00,358.35"/>
    </edge>
    <edge id="d3:e3" from="d3" to="e3" priority="3" type="uMajor">
        <lane id="d3:e3_0" index="0" speed="11.18" length="118.55" shape="371.55,361.45 371.55,480.00"/>
        <lane id="d3:e3_1" index="1" speed="11.18" length="118.55" shape="368.25,361.45 368.25,480.00"/>
        <lane id="d3:e3_2" index="2" speed="11.18" length="118.55" shape="364.95,361.45 364.95,480.00"/>
        <lane id="d3:e3_3" index="3" speed="11.18" length="118.55" shape="361.65,361.45 361.65,480.00"/>
    </edge>
    <edge id="e2:d2" from="e2" to="d2" priority="3" type="uMajor">
        <lane id="e2:d2_0" index="0" speed="11.18" length="118.55" shape="228.45,480.00 228.45,361.45"/>
        <lane id="e2:d2_1" index="1" speed="11.18" length="118.55" shape="231.75,480.00 231.75,361.45"/>
        <lane id="e2:d2_2" index="2" speed="11.18" length="118.55" shape="235.05,480.00 235.05,361.45"/>
        <lane id="e2:d2_3" index="3" speed="11.18" length="118.55" shape="238.35,480.00 238.35,361.45"/>
    </edge>

    <tlLogic id="b1" type="static" programID="0" offset="0">
        <phase duration="42" state="GGGGGrrrrr"/>
        <phase duration="3" state="yyyyyrrrrr"/>
        <phase duration="42" state="rrrrrGGGGG"/>
        <phase duration="3" state="rrrrryyyyy"/>
    </tlLogic>
    <tlLogic id="b2" type="static" programID="0" offset="0">
        <phase duration="42" state="GGGGGrrrrr"/>
        <phase duration="3" state="yyyyyrrrrr"/>
        <phase duration="42" state="rrrrrGGGGG"/>
        <phase duration="3" state="rrrrryyyyy"/>
    </tlLogic>
    <tlLogic id="b3" type="static" programID="0" offset="0">
        <phase duration="42" state="GGGGGrrrrr"/>
        <phase duration="3" state="yyyyyrrrrr"/>
        <phase duration="42" state="rrrrrGGGGG"/>
        <phase duration="3" state="rrrrryyyyy"/>
    </tlLogic>
    <tlLogic id="c1" type="static" programID="0" offset="0">
        <phase duration="42" state="rrrrrGGGGG"/>
        <phase duration="3" state="rrrrryyyyy"/>
        <phase duration="42" state="GGGGGrrrrr"/>
        <phase duration="3" state="yyyyyrrrrr"/>
    </tlLogic>
    <tlLogic id="c2" type="static" programID="0" offset="0">
        <phase duration="42" state="GGGGGrrrrr"/>
        <phase duration="3" state="yyyyyrrrrr"/>
        <phase duration="42" state="rrrrrGGGGG"/>
        <phase duration="3" state="rrrrryyyyy"/>
    </tlLogic>
    <tlLogic id="c3" type="static" programID="0" offset="0">
        <phase duration="42" state="rrrrrGGGGG"/>
        <phase duration="3" state="rrrrryyyyy"/>
        <phase duration="42" state="GGGGGrrrrr"/>
        <phase duration="3" state="yyyyyrrrrr"/>
    </tlLogic>
    <tlLogic id="d1" type="static" programID="0" offset="0">
        <phase duration="42" state="GGGGGrrrrr"/>
        <phase duration="3" state="yyyyyrrrrr"/>
        <phase duration="42" state="rrrrrGGGGG"/>
        <phase duration="3" state="rrrrryyyyy"/>
    </tlLogic>
    <tlLogic id="d2" type="static" programID="0" offset="0">
        <phase duration="42" state="GGGGGrrrrr"/>
        <phase duration="3" state="yyyyyrrrrr"/>
        <phase duration="42" state="rrrrrGGGGG"/>
        <phase duration="3" state="rrrrryyyyy"/>
    </tlLogic>
    <tlLogic id="d3" type="static" programID="0" offset="0">
        <phase duration="42" state="GGGGGrrrrr"/>
        <phase duration="3" state="yyyyyrrrrr"/>
        <phase duration="42" state="rrrrrGGGGG"/>
        <phase duration="3" state="rrrrryyyyy"/>
    </tlLogic>

    <junction id="a1" type="dead_end" x="120.00" y="0.00" incLanes="" intLanes="" shape="120.05,0.00 133.15,0.00"/>
    <junction id="a2" type="dead_end" x="240.00" y="0.00" incLanes="b2:a2_0 b2:a2_1 b2:a2_2 b2:a2_3" intLanes="" shape="226.85,0.00 239.95,0.00"/>
    <junction id="a3" type="dead_end" x="360.00" y="0.00" incLanes="" intLanes="" shape="360.05,0.00 373.15,0.00"/>
    <junction id="b0" type="dead_end" x="0.00" y="120.00" incLanes="" intLanes="" shape="0.00,119.95 0.00,116.75"/>
    <junction id="b1" type="traffic_light" x="120.00" y="120.00" incLanes="a1:b1_0 a1:b1_1 a1:b1_2 a1:b1_3 b0:b1_0" intLanes=":b1_0_0 :b1_1_0 :b1_1_1 :b1_1_2 :b1_1_3 :b1_5_0 :b1_6_0 :b1_6_1 :b1_6_2 :b1_6_3" shape="120.05,121.45 133.15,121.45 134.65,119.95 134.65,116.75 133.15,115.25 120.05,115.25 118.55,116.75 118.55,119.95">
        <request index="0" response="0000000000" foes="0000100000" cont="0"/>
        <request index="1" response="0000000000" foes="1111100000" cont="0"/>
        <request index="2" response="0000000000" foes="1111100000" cont="0"/>
        <request index="3" response="0000000000" foes="1111100000" cont="0"/>
        <request index="4" response="0000000000" foes="1111100000" cont="0"/>
        <request index="5" response="0000011111" foes="0000011111" cont="0"/>
        <request index="6" response="0000011110" foes="0000011110" cont="0"/>
        <request index="7" response="0000011110" foes="0000011110" cont="0"/>
        <request index="8" response="0000011110" foes="0000011110" cont="0"/>
        <request index="9" response="0000011110" foes="0000011110" cont="0"/>
    </junction>
    <junction id="b2" type="traffic_light" x="240.00" y="120.00" incLanes="c2:b2_0 c2:b2_1 c2:b2_2 c2:b2_3 b1:b2_0" intLanes=":b2_0_0 :b2_0_1 :b2_0_2 :b2_0_3 :b2_4_0 :b2_5_0 :b2_5_1 :b2_5_2 :b2_5_3 :b2_9_0" shape="226.85,121.45 239.95,121.45 241.45,119.95 241.45,116.75 239.95,115.25 226.85,115.25 225.35,116.75 225.35,119.95">
        <request index="0" response="0000000000" foes="1111100000" cont="0"/>
        <request index="1" response="0000000000" foes="1111100000" cont="0"/>
        <request index="2" response="0000000000" foes="1111100000" cont="0"/>
        <request index="3" response="0000000000" foes="1111100000" cont="0"/>
        <request index="4" response="0000000000" foes="1000000000" cont="0"/>
        <request index="5" response="0000001111" foes="0000001111" cont="0"/>
        <request index="6" response="0000001111" foes="0000001111" cont="0"/>
        <request index="7" response="0000001111" foes="0000001111" cont="0"/>
        <request index="8" response="0000001111" foes="0000001111" cont="0"/>
        <request index="9" response="0000011111" foes="0000011111" cont="0"/>
    </junction>
    <junction id="b3" type="traffic_light" x="360.00" y="120.00" incLanes="a3:b3_0 a3:b3_1 a3:b3_2 a3:b3_3 b2:b3_0" intLanes=":b3_0_0 :b3_1_0 :b3_1_1 :b3_1_2 :b3_1_3 :b3_5_0 :b3_6_0 :b3_6_1 :b3_6_2 :b3_6_3" shape="360.05,121.45 373.15,121.45 374.65,119.95 374.65,116.75 373.15,115.25 360.05,115.25 358.55,116.75 358.55,119.95">
        <request index="0" response="0000000000" foes="0000100000" cont="0"/>
        <request index="1" response="0000000000" foes="1111100000" cont="0"/>
        <request index="2" response="0000000000" foes="1111100000" cont="0"/>
        <request index="3" response="0000000000" foes="1111100000" cont="0"/>
        <request index="4" response="0000000000" foes="1111100000" cont="0"/>
        <request index="5" response="0000011111" foes="0000011111" cont="0"/>
        <request index="6" response="0000011110" foes="0000011110" cont="0"/>
        <request index="7" response="0000011110" foes="0000011110" cont="0"/>
        <request index="8" response="0000011110" foes="0000011110" cont="0"/>
        <request index="9" response="0000011110" foes="0000011110" cont="0"/>
    </junction>
    <junction id="b4" type="dead_end" x="480.00" y="120.00" incLanes="b3:b4_0" intLanes="" shape="480.00,116.75 480.00,119.95"/>
    <junction id="c0" type="dead_end" x="0.00" y="240.00" incLanes="c1:c0_0" intLanes="" shape="0.00,243.25 0.00,240.05"/>
    <junction id="c1" type="traffic_light" x="120.00" y="240.00" incLanes="c2:c1_0 b1:c1_0 b1:c1_1 b1:c1_2 b1:c1_3" intLanes=":c1_0_0 :c1_0_1 :c1_0_2 :c1_0_3 :c1_4_0 :c1_5_0 :c1_5_1 :c1_5_2 :c1_5_3 :c1_9_0" shape="120.05,244.75 133.15,244.75 134.65,243.25 134.65,240.05 133.15,238.55 120.05,238.55 118.55,240.05 118.55,243.25">
        <request index="0" response="0111100000" foes="0111100000" cont="0"/>
        <request index="1" response="0111100000" foes="0111100000" cont="0"/>
        <request index="2" response="0111100000" foes="0111100000" cont="0"/>
        <request index="3" response="0111100000" foes="0111100000" cont="0"/>
        <request index="4" response="1111100000" foes="1111100000" cont="0"/>
        <request index="5" response="0000000000" foes="0000011111" cont="0"/>
        <request index="6" response="0000000000" foes="0000011111" cont="0"/>
        <request index="7" response="0000000000" foes="0000011111" cont="0"/>