<routes>
    <vType id="typeHuman" accel="2.6" decel="4.5" sigma="0.5" length="5" minGap="2.5" maxSpeed="25" guiShape="passenger" color="1,1,0">
    </vType>

    <vType id="typeITSCV" accel="2.6" decel="4.5" sigma="0.5" length="5" minGap="2.5" maxSpeed="25" guiShape="passenger" color="1,0,0">
        <carFollowing-Krauss tau="1.0"/>
    </vType>

    <route id="0" edges="a1:b1 b1:b2 b2:a2"/>
    <route id="1" edges="a1:b1 b1:b2 b2:b3 b3:b4"/>
    <route id="2" edges="a1:b1 b1:c1 c1:c0"/>
    <route id="3" edges="a1:b1 b1:c1 c1:d1 d1:e1"/>
    <route id="4" edges="a1:b1 b1:c1 c1:d1 d1:d2 d2:d3 d3:d4"/>
    <route id="5" edges="a1:b1 b1:c1 c1:d1 d1:d2 d2:d3 d3:e3"/>
    <route id="6" edges="a3:b3 b3:c3 c3:c2 c2:b2 b2:a2"/>
    <route id="7" edges="a3:b3 b3:b4"/>
    <route id="8" edges="a3:b3 b3:c3 c3:c2 c2:c1 c1:c0"/>
    <route id="9" edges="a3:b3 b3:c3 c3:c2 c2:c1 c1:d1 d1:e1"/>
    <route id="10" edges="a3:b3 b3:c3 c3:d3 d3:d4"/>
    <route id="11" edges="a3:b3 b3:c3 c3:d3 d3:e3"/>
    <route id="12" edges="b0:b1 b1:b2 b2:a2"/>
    <route id="13" edges="b0:b1 b1:b2 b2:b3 b3:b4"/>
    <route id="14" edges="b0:b1 b1:c1 c1:c0"/>
    <route id="15" edges="b0:b1 b1:c1 c1:d1 d1:e1"/>
    <route id="16" edges="b0:b1 b1:c1 c1:d1 d1:d2 d2:d3 d3:d4"/>
    <route id="17" edges="b0:b1 b1:c1 c1:d1 d1:d2 d2:d3 d3:e3"/>
    <route id="18" edges="c4:c3 c3:c2 c2:b2 b2:a2"/>
    <route id="19" edges="c4:c3 c3:c2 c2:b2 b2:b3 b3:b4"/>
    <route id="20" edges="c4:c3 c3:c2 c2:c1 c1:c0"/>
    <route id="21" edges="c4:c3 c3:c2 c2:c1 c1:d1 d1:e1"/>
    <route id="22" edges="c4:c3 c3:d3 d3:d4"/>
    <route id="23" edges="c4:c3 c3:d3 d3:e3"/>
    <route id="24" edges="d0:d1 d1:d2 d2:c2 c2:b2 b2:a2"/>
    <route id="25" edges="d0:d1 d1:d2 d2:c2 c2:b2 b2:b3 b3:b4"/>
    <route id="26" edges="d0:d1 d1:d2 d2:c2 c2:c1 c1:c0"/>
    <route id="27" edges="d0:d1 d1:e1"/>
    <route id="28" edges="d0:d1 d1:d2 d2:d3 d3:d4"/>
    <route id="29" edges="d0:d1 d1:d2 d2:d3 d3:e3"/>
    <route id="30" edges="e2:d2 d2:c2 c2:b2 b2:a2"/>
    <route id="31" edges="e2:d2 d2:c2 c2:b2 b2:b3 b3:b4"/>
    <route id="32" edges="e2:d2 d2:c2 c2:c1 c1:c0"/>
    <route id="33" edges="e2:d2 d2:c2 c2:c1 c1:d1 d1:e1"/>
    <route id="34" edges="e2:d2 d2:d3 d3:d4"/>
    <route id="35" edges="e2:d2 d2:d3 d3:e3"/>
    
    <vehicle id="0" type="typeHuman" route="1" depart="0"  departLane="best" departSpeed="max"/>
    <vehicle id="1" type="typeHuman" route="3" depart="0"  departLane="best" departSpeed="max"/>
    <vehicle id="2" type="typeHuman" route="11" depart="0"  departLane="best" departSpeed="max"/>
    <vehicle id="3" type="typeHuman" route="30" depart="0"  departLane="best" departSpeed="max"/>
    <vehicle id="4" type="typeHuman" route="32" depart="0"  departLane="best" departSpeed="max"/>
    <vehicle id="5" type="typeHuman" route="3" depart="1"  departLane="best" departSpeed="max"/>
    <vehicle id="6" type="typeHuman" route="11" depart="1"  departLane="best" departSpeed="max"/>
    <vehicle id="7" type="typeHuman" route="30" depart="1"  departLane="best" departSpeed="max"/>
    <vehicle id="8" type="typeHuman" route="3" depart="2"  departLane="best" departSpeed="max"/>
    <vehicle id="9" type="typeHuman" route="10" depart="2"  departLane="best" departSpeed="max"/>
    <vehicle id="10" type="typeHuman" route="11" depart="2"  departLane="best" departSpeed="max"/>
    <vehicle id="11" type="typeHuman" route="21" depart="2"  departLane="best" departSpeed="max"/>
    <vehicle id="12" type="typeHuman" route="30" depart="2"  departLane="best" departSpeed="max"/>
    <vehicle id="13" type="typeHuman" route="3" depart="3"  departLane="best" departSpeed="max"/>
    <vehicle id="14" type="typeHuman" route="11" depart="3"  departLane="best" departSpeed="max"/>
    <vehicle id="15" type="typeHuman" route="15" depart="3"  departLane="best" departSpeed="max"/>
    <vehicle id="16" type="typeHuman" route="30" depart="3"  departLane="best" departSpeed="max"/>
    <vehicle id="17" type="typeHuman" route="3" depart="4"  departLane="best" departSpeed="max"/>
    <vehicle id="18" type="typeHuman" route="11" depart="4"  departLane="best" departSpeed="max"/>
    <vehicle id="19" type="typeHuman" route="30" depart="4"  departLane="best" departSpeed="max"/>
    <vehicle id="20" type="typeHuman" route="34" depart="4"  departLane="best" departSpeed="max"/>
    <vehicle id="21" type="typeHuman" route="3" depart="5"  departLane="best" departSpeed="max"/>
    <vehicle id="22" type="typeHuman" route="11" depart="5"  departLane="best" departSpeed="max"/>
    <vehicle id="23" type="typeHuman" route="30" depart="5"  departLane="best" departSpeed="max"/>
    <vehicle id="24" type="typeHuman" route="3" depart="6"  departLane="best" departSpeed="max"/>
    <vehicle id="25" type="typeHuman" route="11" depart="6"  departLane="best" departSpeed="max"/>
    <vehicle id="26" type="typeHuman" route="30" depart="6"  departLane="best" departSpeed="max"/>
    <vehicle id="27" type="typeHuman" route="3" depart="7"  departLane="best" departSpeed="max"/>
    <vehicle id="28" type="typeHuman" route="11" depart="7"  departLane="best" departSpeed="max"/>
    <vehicle id="29" type="typeHuman" route="25" depart="7"  departLane="best" departSpeed="max"/>
    <vehicle id="30" type="typeHuman" route="30" depart="7"  departLane="best" departSpeed="max"/>
    <vehicle id="31" type="typeHuman" route="3" depart="8"  departLane="best" departSpeed="max"/>
    <vehicle id="32" type="typeHuman" route="11" depart="8"  departLane="best" departSpeed="max"/>
    <vehicle id="33" type="typeHuman" route="30" depart="8"  departLane="best" departSpeed="max"/>
    <vehicle id="34" type="typeHuman" route="3" depart="9"  departLane="best" departSpeed="max"/>
    <vehicle id="35" type="typeHuman" route="11" depart="9"  departLane="best" departSpeed="max"/>
    <vehicle id="36" type="typeHuman" route="30" depart="9"  departLane="best" departSpeed="max"/>
    <vehicle id="37" type="typeHuman" route="3" depart="10"  departLane="best" departSpeed="max"/>
    <vehicle id="38" type="typeHuman" route="11" depart="10"  departLane="best" departSpeed="max"/>
    <vehicle id="39" type="typeHuman" route="29" depart="10"  departLane="best" departSpeed="max"/>
    <vehicle id="40" type="typeHuman" route="30" depart="10"  departLane="best" departSpeed="max"/>
    <vehicle id="41" type="typeHuman" route="3" depart="11"  departLane="best" departSpeed="max"/>
    <vehicle id="42" type="typeHuman" route="8" depart="11"  departLane="best" departSpeed="max"/>
    <vehicle id="43" type="typeHuman" route="11" depart="11"  departLane="best" departSpeed="max"/>
    <vehicle id="44" type="typeHuman" route="30" depart="11"  departLane="best" departSpeed="max"/>
    <vehicle id="45" type="typeHuman" route="3" depart="12"  departLane="best" departSpeed="max"/>
    <vehicle id="46" type="typeHuman" route="11" depart="12"  departLane="best" departSpeed="max"/>
    <vehicle id="47" type="typeHuman" route="22" depart="12"  departLane="best" departSpeed="max"/>
    <vehicle id="48" type="typeHuman" route="30" depart="12"  departLane="best" departSpeed="max"/>
    <vehicle id="49" type="typeHuman" route="0" depart="13"  departLane="best" departSpeed="max"/>
    <vehicle id="50" type="typeHuman" route="3" depart="13"  departLane="best" departSpeed="max"/>
    <vehicle id="51" type="typeHuman" route="11" depart="13"  departLane="best" departSpeed="max"/>
    <vehicle id="52" type="typeHuman" route="30" depart="13"  departLane="best" departSpeed="max"/>
    <vehicle id="53" type="typeHuman" route="3" depart="14"  departLane="best" departSpeed="max"/>
    <vehicle id="54" type="typeHuman" route="11" depart="14"  departLane="best" departSpeed="max"/>
    <vehicle id="55" type="typeHuman" route="30" depart="14"  departLane="best" departSpeed="max"/>
    <vehicle id="56" type="typeHuman" route="3" depart="15"  departLane="best" departSpeed="max"/>
    <vehicle id="57" type="typeHuman" route="11" depart="15"  departLane="best" departSpeed="max"/>
    <vehicle id="58" type="typeHuman" route="16" depart="15"  departLane="best" departSpeed="max"/>
    <vehicle id="59" type="typeHuman" route="30" depart="15"  departLane="best" departSpeed="max"/>
    <vehicle id="60" type="typeHuman" route="3" depart="16"  departLane="best" departSpeed="max"/>
    <vehicle id="61" type="typeHuman" route="11" depart="16"  departLane="best" departSpeed="max"/>
    <vehicle id="62" type="typeHuman" route="21" depart="16"  departLane="best" departSpeed="max"/>
    <vehicle id="63" type="typeHuman" route="30" depart="16"  departLane="best" departSpeed="max"/>
    <vehicle id="64" type="typeHuman" route="3" depart="17"  departLane="best" departSpeed="max"/>
    <vehicle id="65" type="typeHuman" route="11" depart="17"  departLane="best" departSpeed="max"/>
    <vehicle id="66" type="typeHuman" route="23" depart="17"  departLane="best" departSpeed="max"/>
    <vehicle id="67" type="typeHuman" route="27" depart="17"  departLane="best" departSpeed="max"/>
    <vehicle id="68" type="typeHuman" route="30" depart="17"  departLane="best" departSpeed="max"/>
    <vehicle id="69" type="typeHuman" route="1" depart="18"  departLane="best" departSpeed="max"/>
    <vehicle id="70" type="typeHuman" route="3" depart="18"  departLane="best" departSpeed="max"/>
    <vehicle id="71" type="typeHuman" route="11" depart="18"  departLane="best" departSpeed="max"/>
    <vehicle id="72" type="typeHuman" route="30" depart="18"  departLane="best" departSpeed="max"/>
    <vehicle id="73" type="typeHuman" route="3" depart="19"  departLane="best" departSpeed="max"/>
    <vehicle id="74" type="typeHuman" route="11" depart="19"  departLane="best" departSpeed="max"/>
    <vehicle id="75" type="typeHuman" route="23" depart="19"  departLane="best" departSpeed="max"/>
    <vehicle id="76" type="typeHuman" route="30" depart="19"  departLane="best" departSpeed="max"/>
    <vehicle id="77" type="typeHuman" route="3" depart="20"  departLane="best" departSpeed="max"/>
    <vehicle id="78" type="typeHuman" route="11" depart="20"  departLane="best" departSpeed="max"/>
    <vehicle id="79" type="typeHuman" route="30" depart="20"  departLane="best" departSpeed="max"/>
    <vehicle id="80" type="typeHuman" route="3" depart="21"  departLane="best" departSpeed="max"/>
    <vehicle id="81" type="typeHuman" route="11" depart="21"  departLane="best" departSpeed="max"/>
    <vehicle id="82" type="typeHuman" route="15" depart="21"  departLane="best" departSpeed="max"/>
    <vehicle id="83" type="typeHuman" route="30" depart="21"  departLane="best" departSpeed="max"/>
    <vehicle id="84" type="typeHuman" route="3" depart="22"  departLane="best" departSpeed="max"/>
    <vehicle id="85" type="typeHuman" route="11" depart="22"  departLane="best" departSpeed="max"/>
    <vehicle id="86" type="typeHuman" route="30" depart="22"  departLane="best" departSpeed="max"/>
    <vehicle id="87" type="typeHuman" route="3" depart="23"  departLane="best" departSpeed="max"/>
    <vehicle id="88" type="typeHuman" route="11" depart="23"  departLane="best" departSpeed="max"/>
    <vehicle id="89" type="typeHuman" route="15" depart="23"  departLane="best" departSpeed="max"/>
    <vehicle id="90" type="typeHuman" route="24" depart="23"  departLane="best" departSpeed="max"/>
    <vehicle id="91" type="typeHuman" route="30" depart="23"  departLane="best" departSpeed="max"/>
    <vehicle id="92" type="typeHuman" route="3" depart="24"  departLane="best" departSpeed="max"/>
    <vehicle id="93" type="typeHuman" route="11" depart="24"  departLane="best" departSpeed="max"/>
    <vehicle id="94" type="typeHuman" route="30" depart="24"  departLane="best" departSpeed="max"/>
    <vehicle id="95" type="typeHuman" route="3" depart="25"  departLane="best" departSpeed="max"/>
    <vehicle id="96" type="typeHuman" route="11" depart="25"  departLane="best" departSpeed="max"/>
    <vehicle id="97" type="typeHuman" route="30" depart="25"  departLane="best" departSpeed="max"/>
    <vehicle id="98" type="typeHuman" route="3" depart="26"  departLane="best" departSpeed="max"/>
    <vehicle id="99" type="typeHuman" route="11" depart="26"  departLane="best" departSpeed="max"/>
    <vehicle id="100" type="typeHuman" route="30" depart="26"  departLane="best" departSpeed="max"/>
    <vehicle id="101" type="typeHuman" route="34" depart="26"  departLane="best" departSpeed="max"/>
    <vehicle id="102" type="typeHuman" route="3" depart="27"  departLane="best" departSpeed="max"/>
    <vehicle id="103" type="typeHuman" route="11" depart="27"  departLane="best" departSpeed="max"/>
    <vehicle id="104" type="typeHuman" route="30" depart="27"  departLane="best" departSpeed="max"/>
    <vehicle id="105" type="typeHuman" route="3" depart="28"  departLane="best" departSpeed="max"/>
    <vehicle id="106" type="typeHuman" route="8" depart="28"  departLane="best" departSpeed="max"/>
    <vehicle id="107" type="typeHuman" route="11" depart="28"  departLane="best" departSpeed="max"/>
    <vehicle id="108" type="typeHuman" route="30" depart="28"  departLane="best" departSpeed="max"/>
    <vehicle id="109" type="typeHuman" route="3" depart="29"  departLane="best" departSpeed="max"/>
    <vehicle id="110" type="typeHuman" route="4" depart="29"  departLane="best" departSpeed="max"/>
    <vehicle id="111" type="typeHuman" route="11" depart="29"  departLane="best" departSpeed="max"/>
    <vehicle id="112" type="typeHuman" route="30" depart="29"  departLane="best" departSpeed="max"/>
    <vehicle id="113" type="typeHuman" route="3" depart="30"  departLane="best" departSpeed="max"/>
    <vehicle id="114" type="typeHuman" route="11" depart="30"  departLane="best" departSpeed="max"/>
    <vehicle id="115" type="typeHuman" route="30" depart="30"  departLane="best" departSpeed="max"/>
    <vehicle id="116" type="typeHuman" route="31" depart="30"  departLane="best" departSpeed="max"/>
    <vehicle id="117" type="typeHuman" route="3" depart="31"  departLane="best" departSpeed="max"/>
    <vehicle id="118" type="typeHuman" route="11" depart="31"  departLane="best" departSpeed="max"/>
    <vehicle id="119" type="typeHuman" route="30" depart="31"  departLane="best" departSpeed="max"/>
    <vehicle id="120" type="typeHuman" route="3" depart="32"  departLane="best" departSpeed="max"/>
    <vehicle id="121" type="typeHuman" route="11" depart="32"  departLane="best" departSpeed="max"/>
    <vehicle id="122" type="typeHuman" route="30" depart="32"  departLane="best" departSpeed="max"/>
    <vehicle id="123" type="typeHuman" route="3" depart="33"  departLane="best" departSpeed="max"/>
    <vehicle id="124" type="typeHuman" route="11" depart="33"  departLane="best" departSpeed="max"/>
    <vehicle id="125" type="typeHuman" route="30" depart="33"  departLane="best" departSpeed="max"/>
    <vehicle id="126" type="typeHuman" route="3" depart="34"  departLane="best" departSpeed="max"/>
    <vehicle id="127" type="typeHuman" route="11" depart="34"  departLane="best" departSpeed="max"/>
    <vehicle id="128" type="typeHuman" route="15" depart="34"  departLane="best" departSpeed="max"/>
    <vehicle id="129" type="typeHuman" route="30" depart="34"  departLane="best" departSpeed="max"/>
    <vehicle id="130" type="typeHuman" route="3" depart="35"  departLane="best" departSpeed="max"/>
    <vehicle id="131" type="typeHuman" route="11" depart="35"  departLane="best" departSpeed="max"/>
    <vehicle id="132" type="typeHuman" route="30" depart="35"  departLane="best" departSpeed="max"/>
    <vehicle id="133" type="typeHuman" route="0" depart="36"  departLane="best" departSpeed="max"/>
    <vehicle id="134" type="typeHuman" route="3" depart="36"  departLane="best" departSpeed="max"/>
    <vehicle id="135" type="typeHuman" route="11" depart="36"  departLane="best" departSpeed="max"/>
    <vehicle id="136" type="typeHuman" route="30" depart="36"  departLane="best" departSpeed="max"/>
    <vehicle id="137" type="typeHuman" route="3" depart="37"  departLane="best" departSpeed="max"/>
    <vehicle id="138" type="typeHuman" route="11" depart="37"  departLane="best" departSpeed="max"/>
    <vehicle id="139" type="typeHuman" route="30" depart="37"  departLane="best" departSpeed="max"/>
    <vehicle id="140" type="typeHuman" route="3" depart="38"  departLane="best" departSpeed="max"/>
    <vehicle id="141" type="typeHuman" route="11" depart="38"  departLane="best" departSpeed="max"/>
    <vehicle id="142" type="typeHuman" route="30" depart="38"  departLane="best" departSpeed="max"/>
    <vehicle id="143" type="typeHuman" route="3" depart="39"  departLane="best" departSpeed="max"/>
    <vehicle id="144" type="typeHuman" route="11" depart="39"  departLane="best" departSpeed="max"/>
    <vehicle id="145" type="typeHuman" route="30" depart="39"  departLane="best" departSpeed="max"/>
    <vehicle id="146" type="typeHuman" route="3" depart="40"  departLane="best" departSpeed="max"/>
    <vehicle id="147" type="typeHuman" route="11" depart="40"  departLane="best" departSpeed="max"/>
    <vehicle id="148" type="typeHuman" route="24" depart="40"  departLane="best" departSpeed="max"/>
    <vehicle id="149" type="typeHuman" route="30" depart="40"  departLane="best" departSpeed="max"/>
    <vehicle id="150" type="typeHuman" route="3" depart="41"  departLane="best" departSpeed="max"/>
    <vehicle id="151" type="typeHuman" route="11" depart="41"  departLane="best" departSpeed="max"/>
    <vehicle id="152" type="typeHuman" route="30" depart="41"  departLane="best" departSpeed="max"/>
    <vehicle id="153" type="typeHuman" route="3" depart="42"  departLane="best" departSpeed="max"/>
    <vehicle id="154" type="typeHuman" route="11" depart="42"  departLane="best" departSpeed="max"/>
    <vehicle id="155" type="typeHuman" route="30" depart="42"  departLane="best" departSpeed="max"/>
    <vehicle id="156" type="typeHuman" route="2" depart="43"  departLane="best" departSpeed="max"/>
    <vehicle id="157" type="typeHuman" route="3" depart="43"  departLane="best" departSpeed="max"/>
    <vehicle id="158" type="typeHuman" route="11" depart="43"  departLane="best" departSpeed="max"/>
    <vehicle id="159" type="typeHuman" route="30" depart="43"  departLane="best" departSpeed="max"/>
    <vehicle id="160" type="typeHuman" route="3" depart="44"  departLane="best" departSpeed="max"/>
    <vehicle id="161" type="typeHuman" route="11" depart="44"  departLane="best" departSpeed="max"/>
    <vehicle id="162" type="typeHuman" route="30" depart="44"  departLane="best" departSpeed="max"/>
    <vehicle id="163" type="typeHuman" route="3" depart="45"  departLane="best" departSpeed="max"/>
    <vehicle id="164" type="typeHuman" route="11" depart="45"  departLane="best" departSpeed="max"/>
    <vehicle id="165" type="typeHuman" route="21" depart="45"  departLane="best" departSpeed="max"/>
    <vehicle id="166" type="typeHuman" route="30" depart="45"  departLane="best" departSpeed="max"/>
    <vehicle id="167" type="typeHuman" route="3" depart="46"  departLane="best" departSpeed="max"/>
    <vehicle id="168" type="typeHuman" route="11" depart="46"  departLane="best" departSpeed="max"/>
    <vehicle id="169" type="typeHuman" route="30" depart="46"  departLane="best" departSpeed="max"/>
    <vehicle id="170" type="typeHuman" route="3" depart="47"  departLane="best" departSpeed="max"/>
    <vehicle id="171" type="typeHuman" route="11" depart="47"  departLane="best" departSpeed="max"/>
    <vehicle id="172" type="typeHuman" route="30" depart="47"  departLane="best" departSpeed="max"/>
    <vehicle id="173" type="typeHuman" route="3" depart="48"  departLane="best" departSpeed="max"/>
    <vehicle id="174" type="typeHuman" route="11" depart="48"  departLane="best" departSpeed="max"/>
    <vehicle id="175" type="typeHuman" route="30" depart="48"  departLane="best" departSpeed="max"/>
    <vehicle id="176" type="typeHuman" route="1" depart="49"  departLane="best" departSpeed="max"/>
    <vehicle id="177" type="typeHuman" route="3" depart="49"  departLane="best" departSpeed="max"/>
    <vehicle id="178" type="typeHuman" route="11" depart="49"  departLane="best" departSpeed="max"/>
    <vehicle id="179" type="typeHuman" route="18" depart="49"  departLane="best" departSpeed="max"/>
    <vehicle id="180" type="typeHuman" route="30" depart="49"  departLane="best" departSpeed="max"/>
    <vehicle id="181" type="typeHuman" route="3" depart="50"  departLane="best" departSpeed="max"/>
    <vehicle id="182" type="typeHuman" route="11" depart="50"  departLane="best" departSpeed="max"/>
    <vehicle id="183" type="typeHuman" route="30" depart="50"  departLane="best" departSpeed="max"/>
    <vehicle id="184" type="typeHuman" route="3" depart="51"  departLane="best" departSpeed="max"/>
    <vehicle id="185" type="typeHuman" route="11" depart="51"  departLane="best" departSpeed="max"/>
    <vehicle id="186" type="typeHuman" route="25" depart="51"  departLane="best" departSpeed="max"/>
    <vehicle id="187" type="typeHuman" route="30" depart="51"  departLane="best" departSpeed="max"/>
    <vehicle id="188" type="typeHuman" route="32" depart="51"  departLane="best" departSpeed="max"/>
    <vehicle id="189" type="typeHuman" route="3" depart="52"  departLane="best" departSpeed="max"/>
    <vehicle id="190" type="typeHuman" route="11" depart="52"  departLane="best" departSpeed="max"/>
    <vehicle id="191" type="typeHuman" route="30" depart="52"  departLane="best" departSpeed="max"/>
    <vehicle id="192" type="typeHuman" route="3" depart="53"  departLane="best" departSpeed="max"/>
    <vehicle id="193" type="typeHuman" route="11" depart="53"  departLane="best" departSpeed="max"/>
    <vehicle id="194" type="typeHuman" route="30" depart="53"  departLane="best" departSpeed="max"/>
    <vehicle id="195" type="typeHuman" route="3" depart="54"  departLane="best" departSpeed="max"/>
    <vehicle id="196" type="typeHuman" route="11" depart="54"  departLane="best" departSpeed="max"/>
    <vehicle id="197" type="typeHuman" route="12" depart="54"  departLane="best" departSpeed="max"/>
    <vehicle id="198" type="typeHuman" route="30" depart="54"  departLane="best" departSpeed="max"/>
    <vehicle id="199" type="typeHuman" route="3" depart="55"  departLane="best" departSpeed="max"/>
    <vehicle id="200" type="typeHuman" route="11" depart="55"  departLane="best" departSpeed="max"/>
    <vehicle id="201" type="typeHuman" route="30" depart="55"  departLane="best" departSpeed="max"/>
    <vehicle id="202" type="typeHuman" route="0" depart="56"  departLane="best" departSpeed="max"/>
    <vehicle id="203" type="typeHuman" route="3" depart="56"  departLane="best" departSpeed="max"/>
    <vehicle id="204" type="typeHuman" route="11" depart="56"  departLane="best" departSpeed="max"/>
    <vehicle id="205" type="typeHuman" route="30" depart="56"  departLane="best" departSpeed="max"/>
    <vehicle id="206" type="typeHuman" route="3" depart="57"  departLane="best" departSpeed="max"/>
    <vehicle id="207" type="typeHuman" route="11" depart="57"  departLane="best" departSpeed="max"/>
    <vehicle id="208" type="typeHuman" route="30" depart="57"  departLane="best" departSpeed="max"/>
    <vehicle id="209" type="typeHuman" route="34" depart="57"  departLane="best" departSpeed="max"/>
    <vehicle id="210" type="typeHuman" route="3" depart="58"  departLane="best" departSpeed="max"/>
    <vehicle id="211" type="typeHuman" route="4" depart="58"  departLane="best" departSpeed="max"/>
    <vehicle id="212" type="typeHuman" route="11" depart="58"  departLane="best" departSpeed="max"/>
    <vehicle id="213" type="typeHuman" route="30" depart="58"  departLane="best" departSpeed="max"/>
    <vehicle id="214" type="typeHuman" route="34" depart="58"  departLane="best" departSpeed="max"/>
    <vehicle id="215" type="typeHuman" route="3" depart="59"  departLane="best" departSpeed="max"/>
    <vehicle id="216" type="typeHuman" route="11" depart="59"  departLane="best" departSpeed="max"/>
    <vehicle id="217" type="typeHuman" route="16" depart="59"  departLane="best" departSpeed="max"/>
    <vehicle id="218" type="typeHuman" route="30" depart="59"  departLane="best" departSpeed="max"/>
    <vehicle id="219" type="typeHuman" route="3" depart="60"  departLane="best" departSpeed="max"/>
    <vehicle id="220" type="typeHuman" route="11" depart="60"  departLane="best" departSpeed="max"/>
    <vehicle id="221" type="typeHuman" route="29" depart="60"  departLane="best" departSpeed="max"/>
    <vehicle id="222" type="typeHuman" route="30" depart="60"  departLane="best" departSpeed="max"/>
    <vehicle id="223" type="typeHuman" route="3" depart="61"  departLane="best" departSpeed="max"/>
    <vehicle id="224" type="typeHuman" route="11" depart="61"  departLane="best" departSpeed="max"/>
    <vehicle id="225" type="typeHuman" route="30" depart="61"  departLane="best" departSpeed="max"/>
    <vehicle id="226" type="typeHuman" route="3" depart="62"  departLane="best" departSpeed="max"/>
    <vehicle id="227" type="typeHuman" route="11" depart="62"  departLane="best" departSpeed="max"/>
    <vehicle id="228" type="typeHuman" route="30" depart="62"  departLane="best" departSpeed="max"/>
    <vehicle id="229" type="typeHuman" route="3" depart="63"  departLane="best" departSpeed="max"/>
    <vehicle id="230" type="typeHuman" route="11" depart="63"  departLane="best" departSpeed="max"/>
    <vehicle id="231" type="typeHuman" route="30" depart="63"  departLane="best" departSpeed="max"/>
    <vehicle id="232" type="typeHuman" route="3" depart="64"  departLane="best" departSpeed="max"/>
    <vehicle id="233" type="typeHuman" route="11" depart="64"  departLane="best" departSpeed="max"/>
    <vehicle id="234" type="typeHuman" route="30" depart="64"  departLane="best" departSpeed="max"/>
    <vehicle id="235" type="typeHuman" route="3" depart="65"  departLane="best" departSpeed="max"/>
    <vehicle id="236" type="typeHuman" route="11" depart="65"  departLane="best" departSpeed="max"/>
    <vehicle id="237" type="typeHuman" route="23" depart="65"  departLane="best" departSpeed="max"/>
    <vehicle id="238" type="typeHuman" route="30" depart="65"  departLane="best" departSpeed="max"/>
    <vehicle id="239" type="typeHuman" route="3" depart="66"  departLane="best" departSpeed="max"/>
    <vehicle id="240" type="typeHuman" route="5" depart="66"  departLane="best" departSpeed="max"/>
    <vehicle id="241" type="typeHuman" route="9" depart="66"  departLane="best" departSpeed="max"/>
    <vehicle id="242" type="typeHuman" route="11" depart="66"  departLane="best" departSpeed="max"/>
    <vehicle id="243" type="typeHuman" route="13" depart="66"  departLane="best" departSpeed="max"/>
    <vehicle id="244" type="typeHuman" route="30" depart="66"  departLane="best" departSpeed="max"/>
    <vehicle id="245" type="typeHuman" route="3" depart="67"  departLane="best" departSpeed="max"/>
    <vehicle id="246" type="typeHuman" route="11" depart="67"  departLane="best" departSpeed="max"/>
    <vehicle id="247" type="typeHuman" route="30" depart="67"  departLane="best" departSpeed="max"/>
    <vehicle id="248" type="typeHuman" route="2" depart="68"  departLane="best" departSpeed="max"/>
    <vehicle id="249" type="typeHuman" route="3" depart="68"  departLane="best" departSpeed="max"/>
    <vehicle id="250" type="typeHuman" route="9" depart="68"  departLane="best" departSpeed="max"/>
    <vehicle id="251" type="typeHuman" route="11" depart="68"  departLane="best" departSpeed="max"/>
    <vehicle id="252" type="typeHuman" route="30" depart="68"  departLane="best" departSpeed="max"/>
    <vehicle id="253" type="typeHuman" route="3" depart="69"  departLane="best" departSpeed="max"/>
    <vehicle id="254" type="typeHuman" route="11" depart="69"  departLane="best" departSpeed="max"/>
    <vehicle id="255" type="typeHuman" route="30" depart="69"  departLane="best" departSpeed="max"/>
    <vehicle id="256" type="typeHuman" route="3" depart="70"  departLane="best" departSpeed="max"/>
    <vehicle id="257" type="typeHuman" route="11" depart="70"  departLane="best" departSpeed="max"/>
    <vehicle id="258" type="typeHuman" route="30" depart="70"  departLane="best" departSpeed="max"/>
    <vehicle id="259" type="typeHuman" route="3" depart="71"  departLane="best" departSpeed="max"/>
    <vehicle id="260" type="typeHuman" route="4" depart="71"  departLane="best" departSpeed="max"/>
    <vehicle id="261" type="typeHuman" route="11" depart="71"  departLane="best" departSpeed="max"/>
    <vehicle id="262" type="typeHuman" route="30" depart="71"  departLane="best" departSpeed="max"/>
    <vehicle id="263" type="typeHuman" route="3" depart="72"  departLane="best" departSpeed="max"/>
    <vehicle id="264" type="typeHuman" route="11" depart="72"  departLane="best" departSpeed="max"/>
    <vehicle id="265" type="typeHuman" route="30" depart="72"  departLane="best" departSpeed="max"/>
    <vehicle id="266" type="typeHuman" route="3" depart="73"  departLane="best" departSpeed="max"/>
    <vehicle id="267" type="typeHuman" route="11" depart="73"  departLane="best" departSpeed="max"/>
    <vehicle id="268" type="typeHuman" route="30" depart="73"  departLane="best" departSpeed="max"/>
    <vehicle id="269" type="typeHuman" route="3" depart="74"  departLane="best" departSpeed="max"/>
    <vehicle id="270" type="typeHuman" route="11" depart="74"  departLane="best" departSpeed="max"/>
    <vehicle id="271" type="typeHuman" route="30" depart="74"  departLane="best" departSpeed="max"/>
    <vehicle id="272" type="typeHuman" route="32" depart="74"  departLane="best" departSpeed="max"/>
    <vehicle id="273" type="typeHuman" route="3" depart="75"  departLane="best" departSpeed="max"/>
    <vehicle id="274" type="typeHuman" route="11" depart="75"  departLane="best" departSpeed="max"/>
    <vehicle id="275" type="typeHuman" route="21" depart="75"  departLane="best" departSpeed="max"/>