<?xml version="1.0" encoding="UTF-8"?>
<routes xmlns:xsi="http://www.w3.org/2001/XMLSchema-instance" xsi:noNamespaceSchemaLocation="http://sumo.dlr.de/xsd/routes_file.xsd">
    <route id="0" edges="11:10 10:0 0:1 1:12 12:13"/>
    <route id="1" edges="11:10 10:0 0:1 1:2 2:14 14:15"/>
    <route id="2" edges="11:10 10:0 0:1 1:2 2:3 3:16 16:17"/>
    <route id="3" edges="11:10 10:0 0:1 1:2 2:3 3:18 18:19"/>
    <route id="4" edges="11:10 10:0 0:4 4:6"/>
    <route id="5" edges="11:10 10:0 0:1 1:2 2:3 3:5 5:7"/>
    <route id="6" edges="11:10 10:0 0:8 8:9"/>
    <route id="7" edges="13:12 12:1 1:0 0:10 10:11"/>
    <route id="8" edges="13:12 12:1 1:2 2:14 14:15"/>
    <route id="9" edges="13:12 12:1 1:2 2:3 3:16 16:17"/>
    <route id="10" edges="13:12 12:1 1:2 2:3 3:18 18:19"/>
    <route id="11" edges="13:12 12:1 1:0 0:4 4:6"/>
    <route id="12" edges="13:12 12:1 1:2 2:3 3:5 5:7"/>
    <route id="13" edges="13:12 12:1 1:0 0:8 8:9"/>
    <route id="14" edges="15:14 14:2 2:1 1:0 0:10 10:11"/>
    <route id="15" edges="15:14 14:2 2:1 1:12 12:13"/>
    <route id="16" edges="15:14 14:2 2:3 3:16 16:17"/>
    <route id="17" edges="15:14 14:2 2:3 3:18 18:19"/>
    <route id="18" edges="15:14 14:2 2:1 1:0 0:4 4:6"/>
    <route id="19" edges="15:14 14:2 2:3 3:5 5:7"/>
    <route id="20" edges="15:14 14:2 2:1 1:0 0:8 8:9"/>
    <route id="21" edges="17:16 16:3 3:2 2:1 1:0 0:10 10:11"/>
    <route id="22" edges="17:16 16:3 3:2 2:1 1:12 12:13"/>
    <route id="23" edges="17:16 16:3 3:2 2:14 14:15"/>
    <route id="24" edges="17:16 16:3 3:18 18:19"/>
    <route id="25" edges="17:16 16:3 3:2 2:1 1:0 0:4 4:6"/>
    <route id="26" edges="17:16 16:3 3:5 5:7"/>
    <route id="27" edges="17:16 16:3 3:2 2:1 1:0 0:8 8:9"/>
    <route id="28" edges="19:18 18:3 3:2 2:1 1:0 0:10 10:11"/>
    <route id="29" edges="19:18 18:3 3:2 2:1 1:12 12:13"/>
    <route id="30" edges="19:18 18:3 3:2 2:14 14:15"/>
    <route id="31" edges="19:18 18:3 3:16 16:17"/>
    <route id="32" edges="19:18 18:3 3:2 2:1 1:0 0:4 4:6"/>
    <route id="33" edges="19:18 18:3 3:5 5:7"/>
    <route id="34" edges="19:18 18:3 3:2 2:1 1:0 0:8 8:9"/>
    <route id="35" edges="6:4 4:0 0:10 10:11"/>
    <route id="36" edges="6:4 4:0 0:1 1:12 12:13"/>
    <route id="37" edges="6:4 4:0 0:1 1:2 2:14 14:15"/>
    <route id="38" edges="6:4 4:0 0:1 1:2 2:3 3:16 16:17"/>
    <route id="39" edges="6:4 4:0 0:1 1:2 2:3 3:18 18:19"/>
    <route id="40" edges="6:4 4:0 0:1 1:2 2:3 3:5 5:7"/>
    <route id="41" edges="6:4 4:0 0:8 8:9"/>
    <route id="42" edges="7:5 5:3 3:2 2:1 1:0 0:10 10:11"/>
    <route id="43" edges="7:5 5:3 3:2 2:1 1:12 12:13"/>
    <route id="44" edges="7:5 5:3 3:2 2:14 14:15"/>
    <route id="45" edges="7:5 5:3 3:16 16:17"/>
    <route id="46" edges="7:5 5:3 3:18 18:19"/>
    <route id="47" edges="7:5 5:3 3:2 2:1 1:0 0:4 4:6"/>
    <route id="48" edges="7:5 5:3 3:2 2:1 1:0 0:8 8:9"/>
    <route id="49" edges="9:8 8:0 0:10 10:11"/>
    <route id="50" edges="9:8 8:0 0:1 1:12 12:13"/>
    <route id="51" edges="9:8 8:0 0:1 1:2 2:14 14:15"/>
    <route id="52" edges="9:8 8:0 0:1 1:2 2:3 3:16 16:17"/>
    <route id="53" edges="9:8 8:0 0:1 1:2 2:3 3:18 18:19"/>
    <route id="54" edges="9:8 8:0 0:4 4:6"/>
    <route id="55" edges="9:8 8:0 0:1 1:2 2:3 3:5 5:7"/>
</routes>
