<flows>
    <interval begin="0" end="10800">     
        <flow id="6:4TO10:11" from="6:4" to="10:11" number="250"/>
        <flow id="6:4TO16:17" from="6:4" to="16:17" number="250"/>
        <flow id="6:4TO5:7" from="6:4" to="5:7" number="1000"/>
        <flow id="6:4TO14:15" from="6:4" to="14:15" number="250"/>
        <flow id="6:4TO8:9" from="6:4" to="8:9" number="250"/>
        <flow id="6:4TO18:19" from="6:4" to="18:19" number="250"/>
        <flow id="6:4TO12:13" from="6:4" to="12:13" number="250"/>
        <flow id="9:8TO4:6" from="9:8" to="4:6" number="150"/>
        <flow id="9:8TO16:17" from="9:8" to="16:17" number="150"/>
        <flow id="9:8TO5:7" from="9:8" to="5:7" number="150"/>
        <flow id="9:8TO14:15" from="9:8" to="14:15" number="150"/>
        <flow id="9:8TO10:11" from="9:8" to="10:11" number="150"/>
        <flow id="9:8TO18:19" from="9:8" to="18:19" number="150"/>
        <flow id="9:8TO12:13" from="9:8" to="12:13" number="150"/>
        <flow id="11:10TO4:6" from="11:10" to="4:6" number="150"/>
        <flow id="11:10TO16:17" from="11:10" to="16:17" number="150"/>
        <flow id="11:10TO5:7" from="11:10" to="5:7" number="150"/>
        <flow id="11:10TO14:15" from="11:10" to="14:15" number="150"/>
        <flow id="11:10TO8:9" from="11:10" to="8:9" number="150"/>
        <flow id="11:10TO18:19" from="11:10" to="18:19" number="150"/>
        <flow id="11:10TO12:13" from="11:10" to="12:13" number="150"/>
        <flow id="13:12TO10:11" from="13:12" to="10:11" number="180"/>
        <flow id="13:12TO14:15" from="13:12" to="14:15" number="180"/>
        <flow id="13:12TO8:9" from="13:12" to="8:9" number="180"/>
        <flow id="13:12TO16:17" from="13:12" to="16:17" number="180"/>
        <flow id="13:12TO4:6" from="13:12" to="4:6" number="180"/>
        <flow id="13:12TO5:7" from="13:12" to="5:7" number="180"/>
        <flow id="13:12TO18:19" from="13:12" to="18:19" number="180"/>
        <flow id="15:14TO12:13" from="15:14" to="12:13" number="180"/>
        <flow id="15:14TO18:19" from="15:14" to="18:19" number="180"/>
        <flow id="15:14TO16:17" from="15:14" to="16:17" number="180"/>
        <flow id="15:14TO5:7" from="15:14" to="5:7" number="180"/>
        <flow id="15:14TO8:9" from="15:14" to="8:9" number="180"/>
        <flow id="15:14TO10:11" from="15:14" to="10:11" number="180"/>
        <flow id="15:14TO4:6" from="15:14" to="4:6" number="180"/>
        <flow id="17:16TO8:9" from="17:16" to="8:9" number="150"/>
        <flow id="17:16TO5:7" from="17:16" to="5:7" number="150"/>
        <flow id="17:16TO10:11" from="17:16" to="10:11" number="150"/>
        <flow id="17:16TO4:6" from="17:16" to="4:6" number="150"/>
        <flow id="17:16TO18:19" from="17:16" to="18:19" number="150"/>
        <flow id="17:16TO12:13" from="17:16" to="12:13" number="150"/>
        <flow id="17:16TO14:15" from="17:16" to="14:15" number="150"/>
        <flow id="19:18TO8:9" from="19:18" to="8:9" number="150"/>
        <flow id="19:18TO5:7" from="19:18" to="5:7" number="150"/>
        <flow id="19:18TO10:11" from="19:18" to="10:11" number="150"/>
        <flow id="19:18TO4:6" from="19:18" to="4:6" number="150"/>
        <flow id="19:18TO16:17" from="19:18" to="16:17" number="150"/>
        <flow id="19:18TO12:13" from="19:18" to="12:13" number="150"/>
        <flow id="19:18TO14:15" from="19:18" to="14:15" number="150"/>
        <flow id="7:5TO18:19" from="7:5" to="18:19" number="250"/>
        <flow id="7:5TO8:9" from="7:5" to="8:9" number="250"/>
        <flow id="7:5TO4:6" from="7:5" to="4:6" number="1000"/>
        <flow id="7:5TO12:13" from="7:5" to="12:13" number="250"/>
        <flow id="7:5TO16:17" from="7:5" to="16:17" number="250"/>
        <flow id="7:5TO10:11" from="7:5" to="10:11" number="250"/>
        <flow id="7:5TO14:15" from="7:5" to="14:15" number="250"/>
    </interval>
</flows>