<flows>
    <interval begin="0" end="900">
        <flow id="0" from="edge225.0" to="edge68" number="1"/>
        <flow id="1" from="edge225.0" to="edge8" number="2"/>
        <flow id="2" from="edge225.0" to="edge3179" number="1"/>
        <flow id="3" from="edge246" to="edge8" number="1"/>
        <flow id="4" from="edge246" to="edge294" number="1"/>
        <flow id="5" from="edge246" to="edge3263" number="1"/>
        <flow id="6" from="edge246" to="edge127" number="1"/>
        <flow id="7" from="edge246" to="edge3356" number="1"/>
        <flow id="8" from="edge246" to="edge50" number="1"/>
        <flow id="9" from="edge246" to="edge13" number="1"/>
        <flow id="10" from="edge246" to="edge25" number="1"/>
        <flow id="11" from="edge140" to="edge68" number="2"/>
        <flow id="12" from="edge140" to="edge3179" number="1"/>
        <flow id="13" from="edge140" to="edge3262" number="1"/>
        <flow id="14" from="edge140" to="edge3263" number="3"/>
        <flow id="15" from="edge140" to="edge127" number="1"/>
        <flow id="16" from="edge140" to="edge3356" number="1"/>
        <flow id="17" from="edge140" to="edge50" number="1"/>
        <flow id="18" from="edge140" to="edge118" number="1"/>
        <flow id="19" from="edge140" to="edge3027" number="1"/>
        <flow id="20" from="edge140" to="edge12" number="2"/>
        <flow id="21" from="edge140" to="edge267" number="1"/>
        <flow id="22" from="edge140" to="edge83" number="1"/>
        <flow id="23" from="edge93" to="edge3179" number="1"/>
        <flow id="24" from="edge93" to="edge74" number="1"/>
        <flow id="25" from="edge93" to="edge80" number="1"/>
        <flow id="26" from="edge93" to="edge169" number="1"/>
        <flow id="27" from="edge93" to="edge3356" number="1"/>
        <flow id="28" from="edge93" to="edge50" number="1"/>
        <flow id="29" from="edge93" to="edge13" number="1"/>
        <flow id="30" from="edge93" to="edge16" number="1"/>
        <flow id="31" from="edge93" to="edge25" number="1"/>
        <flow id="32" from="edge93" to="edge180" number="4"/>
        <flow id="33" from="edge113" to="edge294" number="1"/>
        <flow id="34" from="edge113" to="edge74" number="1"/>
        <flow id="35" from="edge113" to="edge50" number="1"/>
        <flow id="36" from="edge113" to="edge267" number="1"/>
        <flow id="37" from="edge116" to="edge3263" number="1"/>
        <flow id="38" from="edge116" to="edge267" number="1"/>
        <flow id="39" from="edge116" to="edge83" number="1"/>
        <flow id="40" from="edge117" to="edge3262" number="1"/>
        <flow id="41" from="edge117" to="edge169" number="1"/>
        <flow id="42" from="edge117" to="edge16" number="1"/>
        <flow id="43" from="edge117" to="edge30" number="1"/>
        <flow id="44" from="edge77" to="edge267" number="1"/>
        <flow id="45" from="edge0" to="edge267" number="1"/>
        <flow id="46" from="edge3351" to="edge8" number="1"/>
        <flow id="47" from="edge3351" to="edge267" number="1"/>
        <flow id="48" from="edge3267" to="edge83" number="1"/>
        <flow id="49" from="edge3269" to="edge83" number="1"/>
        <flow id="50" from="edge255" to="edge3179" number="1"/>
        <flow id="51" from="edge255" to="edge3262" number="1"/>
        <flow id="52" from="edge255" to="edge3117" number="2"/>
        <flow id="53" from="edge255" to="edge3356" number="1"/>
        <flow id="54" from="edge255" to="edge50" number="1"/>
        <flow id="55" from="edge255" to="edge16" number="1"/>
        <flow id="56" from="edge255" to="edge12" number="1"/>
        <flow id="57" from="edge255" to="edge30" number="1"/>
        <flow id="58" from="edge172" to="edge8" number="2"/>
        <flow id="59" from="edge172" to="edge3179" number="1"/>
        <flow id="60" from="edge172" to="edge3356" number="1"/>
        <flow id="61" from="edge172" to="edge83" number="2"/>
        <flow id="62" from="edge31" to="edge68" number="2"/>
        <flow id="63" from="edge31" to="edge74" number="1"/>
        <flow id="64" from="edge31" to="edge25" number="1"/>
        <flow id="65" from="edge276" to="edge8" number="2"/>
        <flow id="66" from="edge276" to="edge294" number="1"/>
        <flow id="67" from="edge276" to="edge3262" number="1"/>
        <flow id="68" from="edge276" to="edge74" number="1"/>
        <flow id="69" from="edge276" to="edge3027" number="1"/>
        <flow id="70" from="edge177" to="edge267" number="1"/>
    </interval>
    <interval begin="900" end="1800">
        <flow id="71" from="edge225.0" to="edge8" number="3"/>
        <flow id="72" from="edge225.0" to="edge294" number="1"/>
        <flow id="73" from="edge225.0" to="edge3179" number="1"/>
        <flow id="74" from="edge246" to="edge169" number="1"/>
        <flow id="75" from="edge246" to="edge120" number="1"/>
        <flow id="76" from="edge246" to="edge13" number="1"/>
        <flow id="77" from="edge246" to="edge12" number="1"/>
        <flow id="78" from="edge246" to="edge267" number="2"/>
        <flow id="79" from="edge246" to="edge180" number="2"/>
        <flow id="80" from="edge246" to="edge83" number="1"/>
        <flow id="81" from="edge140" to="edge68" number="1"/>
        <flow id="82" from="edge140" to="edge294" number="2"/>
        <flow id="83" from="edge140" to="edge3179" number="1"/>
        <flow id="84" from="edge140" to="edge127" number="1"/>
        <flow id="85" from="edge140" to="edge3117" number="1"/>
        <flow id="86" from="edge140" to="edge169" number="1"/>
        <flow id="87" from="edge140" to="edge50" number="2"/>
        <flow id="88" from="edge140" to="edge3350" number="1"/>
        <flow id="89" from="edge140" to="edge3027" number="1"/>
        <flow id="90" from="edge140" to="edge83" number="1"/>
        <flow id="91" from="edge93" to="edge3179" number="2"/>
        <flow id="92" from="edge93" to="edge3263" number="1"/>
        <flow id="93" from="edge93" to="edge3356" number="1"/>
        <flow id="94" from="edge93" to="edge50" number="1"/>
        <flow id="95" from="edge93" to="edge120" number="2"/>
        <flow id="96" from="edge93" to="edge118" number="1"/>
        <flow id="97" from="edge93" to="edge16" number="2"/>
        <flow id="98" from="edge93" to="edge267" number="1"/>
        <flow id="99" from="edge93" to="edge25" number="1"/>
        <flow id="100" from="edge113" to="edge120" number="1"/>
        <flow id="101" from="edge113" to="edge180" number="1"/>
        <flow id="102" from="edge113" to="edge83" number="1"/>
        <flow id="103" from="edge116" to="edge271" number="1"/>
        <flow id="104" from="edge116" to="edge3350" number="1"/>
        <flow id="105" from="edge116" to="edge25" number="1"/>
        <flow id="106" from="edge117" to="edge3027" number="1"/>
        <flow id="107" from="edge117" to="edge16" number="1"/>
        <flow id="108" from="edge117" to="edge83" number="2"/>
        <flow id="109" from="edge262" to="edge83" number="1"/>
        <flow id="110" from="edge0" to="edge25" number="1"/>
        <flow id="111" from="edge23" to="edge83" number="1"/>
        <flow id="112" from="edge3351" to="edge271" number="1"/>
        <flow id="113" from="edge3351" to="edge267" number="1"/>
        <flow id="114" from="edge3351" to="edge83" number="1"/>
        <flow id="115" from="edge3267" to="edge267" number="1"/>
        <flow id="116" from="edge100" to="edge267" number="1"/>
        <flow id="117" from="edge159" to="edge83" number="2"/>
        <flow id="118" from="edge255" to="edge8" number="3"/>
        <flow id="119" from="edge255" to="edge3263" number="1"/>
        <flow id="120" from="edge255" to="edge169" number="1"/>
        <flow id="121" from="edge255" to="edge118" number="1"/>
        <flow id="122" from="edge255" to="edge13" number="1"/>
        <flow id="123" from="edge255" to="edge3027" number="1"/>
        <flow id="124" from="edge255" to="edge16" number="1"/>
        <flow id="125" from="edge172" to="edge120" number="2"/>
        <flow id="126" from="edge172" to="edge3350" number="1"/>
        <flow id="127" from="edge172" to="edge16" number="1"/>
        <flow id="128" from="edge31" to="edge68" number="1"/>
        <flow id="129" from="edge31" to="edge3263" number="1"/>
        <flow id="130" from="edge31" to="edge127" number="1"/>
        <flow id="131" from="edge31" to="edge50" number="1"/>
        <flow id="132" from="edge276" to="edge3263" number="1"/>
        <flow id="133" from="edge276" to="edge127" number="1"/>
        <flow id="134" from="edge276" to="edge169" number="1"/>
        <flow id="135" from="edge276" to="edge118" number="1"/>
        <flow id="136" from="edge276" to="edge267" number="1"/>
    </interval>
    <interval begin="1800" end="2700">
        <flow id="137" from="edge225.0" to="edge8" number="2"/>
        <flow id="138" from="edge225.0" to="edge294" number="1"/>
        <flow id="139" from="edge246" to="edge3179" number="2"/>
        <flow id="140" from="edge246" to="edge80" number="1"/>
        <flow id="141" from="edge246" to="edge50" number="2"/>
        <flow id="142" from="edge246" to="edge120" number="2"/>
        <flow id="143" from="edge246" to="edge119" number="1"/>
        <flow id="144" from="edge246" to="edge25" number="1"/>
        <flow id="145" from="edge246" to="edge180" number="1"/>
        <flow id="146" from="edge246" to="edge83" number="1"/>
        <flow id="147" from="edge140" to="edge294" number="1"/>
        <flow id="148" from="edge140" to="edge3179" number="1"/>
        <flow id="149" from="edge140" to="edge3117" number="1"/>
        <flow id="150" from="edge140" to="edge80" number="1"/>
        <flow id="151" from="edge140" to="edge169" number="1"/>
        <flow id="152" from="edge140" to="edge50" number="1"/>
        <flow id="153" from="edge140" to="edge267" number="2"/>
        <flow id="154" from="edge140" to="edge83" number="2"/>
        <flow id="155" from="edge93" to="edge8" number="5"/>
        <flow id="156" from="edge93" to="edge80" number="1"/>
        <flow id="157" from="edge93" to="edge50" number="1"/>
        <flow id="158" from="edge93" to="edge118" number="1"/>
        <flow id="159" from="edge93" to="edge3027" number="1"/>
        <flow id="160" from="edge93" to="edge267" number="1"/>
        <flow id="161" from="edge93" to="edge180" number="1"/>
        <flow id="162" from="edge113" to="edge3262" number="1"/>
        <flow id="163" from="edge116" to="edge68" number="1"/>
        <flow id="164" from="edge116" to="edge83" number="2"/>
        <flow id="165" from="edge117" to="edge83" number="1"/>
        <flow id="166" from="edge104" to="edge25" number="1"/>
        <flow id="167" from="edge23" to="edge25" number="1"/>
        <flow id="168" from="edge223" to="edge180" number="1"/>
        <flow id="169" from="edge3351" to="edge294" number="1"/>
        <flow id="170" from="edge3351" to="edge80" number="1"/>
        <flow id="171" from="edge3267" to="edge74" number="1"/>
        <flow id="172" from="edge100" to="edge83" number="1"/>
        <flow id="173" from="edge255" to="edge3263" number="1"/>
        <flow id="174" from="edge255" to="edge74" number="1"/>
        <flow id="175" from="edge255" to="edge3117" number="2"/>
        <flow id="176" from="edge255" to="edge80" number="1"/>
        <flow id="177" from="edge172" to="edge3263" number="2"/>
        <flow id="178" from="edge172" to="edge127" number="1"/>
        <flow id="179" from="edge172" to="edge80" number="1"/>
        <flow id="180" from="edge31" to="edge3263" number="1"/>
        <flow id="181" from="edge31" to="edge80" number="1"/>
        <flow id="182" from="edge31" to="edge16" number="2"/>
        <flow id="183" from="edge31" to="edge267" number="1"/>
        <flow id="184" from="edge31" to="edge83" number="1"/>
        <flow id="185" from="edge276" to="edge294" number="1"/>
        <flow id="186" from="edge276" to="edge3179" number="1"/>
        <flow id="187" from="edge276" to="edge120" number="1"/>
        <flow id="188" from="edge276" to="edge119" number="1"/>
        <flow id="189" from="edge276" to="edge30" number="1"/>
    </interval>
    <interval begin="2700" end="3600">
        <flow id="190" from="edge225.0" to="edge8" number="1"/>
        <flow id="191" from="edge225.0" to="edge3179" number="1"/>
        <flow id="192" from="edge225.0" to="edge3262" number="1"/>
        <flow id="193" from="edge246" to="edge8" number="1"/>
        <flow id="194" from="edge246" to="edge3179" number="1"/>
        <flow id="195" from="edge246" to="edge13" number="1"/>
        <flow id="196" from="edge246" to="edge267" number="1"/>
        <flow id="197" from="edge246" to="edge25" number="1"/>
        <flow id="198" from="edge246" to="edge83" number="1"/>
        <flow id="199" from="edge140" to="edge294" number="1"/>
        <flow id="200" from="edge140" to="edge3263" number="1"/>
        <flow id="201" from="edge140" to="edge118" number="1"/>
        <flow id="202" from="edge140" to="edge3027" number="1"/>
        <flow id="203" from="edge140" to="edge16" number="1"/>
        <flow id="204" from="edge140" to="edge267" number="1"/>
        <flow id="205" from="edge140" to="edge25" number="1"/>
        <flow id="206" from="edge140" to="edge180" number="1"/>
        <flow id="207" from="edge93" to="edge68" number="1"/>
        <flow id="208" from="edge93" to="edge8" number="1"/>
        <flow id="209" from="edge93" to="edge3262" number="2"/>
        <flow id="210" from="edge93" to="edge3117" number="1"/>
        <flow id="211" from="edge93" to="edge120" number="1"/>
        <flow id="212" from="edge93" to="edge267" number="1"/>
        <flow id="213" from="edge93" to="edge83" number="1"/>
        <flow id="214" from="edge93" to="edge30" number="1"/>
        <flow id="215" from="edge113" to="edge68" number="1"/>
        <flow id="216" from="edge113" to="edge3350" number="1"/>
        <flow id="217" from="edge113" to="edge83" number="1"/>
        <flow id="218" from="edge116" to="edge68" number="1"/>
        <flow id="219" from="edge116" to="edge169" number="1"/>
        <flow id="220" from="edge116" to="edge267" number="1"/>
        <flow id="221" from="edge116" to="edge83" number="1"/>
        <flow id="222" from="edge117" to="edge294" number="1"/>
        <flow id="223" from="edge117" to="edge16" number="1"/>
        <flow id="224" from="edge117" to="edge83" number="1"/>
        <flow id="225" from="edge272" to="edge83" number="2"/>
        <flow id="226" from="edge125" to="edge83" number="1"/>
        <flow id="227" from="edge3351" to="edge8" number="1"/>
        <flow id="228" from="edge3267" to="edge74" number="1"/>
        <flow id="229" from="edge161" to="edge25" number="1"/>
        <flow id="230" from="edge161" to="edge180" number="1"/>
        <flow id="231" from="edge255" to="edge68" number="1"/>
        <flow id="232" from="edge255" to="edge3356" number="1"/>
        <flow id="233" from="edge255" to="edge119" number="1"/>
        <flow id="234" from="edge255" to="edge3027" number="1"/>
        <flow id="235" from="edge172" to="edge80" number="1"/>
        <flow id="236" from="edge172" to="edge3356" number="1"/>
        <flow id="237" from="edge172" to="edge13" number="2"/>
        <flow id="238" from="edge31" to="edge68" number="2"/>
        <flow id="239" from="edge31" to="edge3117" number="1"/>
        <flow id="240" from="edge276" to="edge8" number="1"/>
        <flow id="241" from="edge276" to="edge169" number="1"/>
        <flow id="242" from="edge276" to="edge120" number="1"/>
        <flow id="243" from="edge276" to="edge267" number="1"/>
    </interval>
    <interval begin="3600" end="4500">
        <flow id="244" from="edge225.0" to="edge68" number="2"/>
        <flow id="245" from="edge225.0" to="edge8" number="1"/>
        <flow id="246" from="edge246" to="edge8" number="2"/>
        <flow id="247" from="edge246" to="edge3179" number="1"/>
        <flow id="248" from="edge246" to="edge3263" number="1"/>
        <flow id="249" from="edge246" to="edge118" number="1"/>
        <flow id="250" from="edge246" to="edge3350" number="1"/>
        <flow id="251" from="edge246" to="edge12" number="1"/>
        <flow id="252" from="edge246" to="edge83" number="2"/>
        <flow id="253" from="edge246" to="edge30" number="1"/>
        <flow id="254" from="edge140" to="edge3263" number="1"/>
        <flow id="255" from="edge140" to="edge271" number="1"/>
        <flow id="256" from="edge140" to="edge3117" number="1"/>
        <flow id="257" from="edge140" to="edge80" number="1"/>
        <flow id="258" from="edge140" to="edge118" number="1"/>
        <flow id="259" from="edge140" to="edge119" number="1"/>
        <flow id="260" from="edge140" to="edge267" number="1"/>
        <flow id="261" from="edge140" to="edge180" number="1"/>
        <flow id="262" from="edge93" to="edge3179" number="1"/>
        <flow id="263" from="edge93" to="edge50" number="1"/>
        <flow id="264" from="edge93" to="edge119" number="1"/>
        <flow id="265" from="edge93" to="edge3350" number="1"/>
        <flow id="266" from="edge93" to="edge267" number="1"/>
        <flow id="267" from="edge93" to="edge25" number="1"/>
        <flow id="268" from="edge93" to="edge30" number="1"/>
        <flow id="269" from="edge113" to="edge120" number="1"/>
        <flow id="270" from="edge113" to="edge12" number="1"/>
        <flow id="271" from="edge116" to="edge50" number="1"/>
        <flow id="272" from="edge116" to="edge83" number="1"/>
        <flow id="273" from="edge117" to="edge3179" number="1"/>
        <flow id="274" from="edge117" to="edge118" number="1"/>
        <flow id="275" from="edge117" to="edge3350" number="1"/>
        <flow id="276" from="edge262" to="edge83" number="1"/>
        <flow id="277" from="edge104" to="edge83" number="1"/>
        <flow id="278" from="edge125" to="edge180" number="1"/>
        <flow id="279" from="edge3351" to="edge3263" number="1"/>
        <flow id="280" from="edge3351" to="edge25" number="1"/>
        <flow id="281" from="edge3267" to="edge120" number="1"/>
        <flow id="282" from="edge3269" to="edge267" number="1"/>
        <flow id="283" from="edge3269" to="edge83" number="1"/>
        <flow id="284" from="edge255" to="edge3179" number="1"/>
        <flow id="285" from="edge255" to="edge118" number="1"/>
        <flow id="286" from="edge172" to="edge50" number="1"/>
        <flow id="287" from="edge172" to="edge3350" number="1"/>
        <flow id="288" from="edge172" to="edge83" number="3"/>
        <flow id="289" from="edge31" to="edge118" number="1"/>
        <flow id="290" from="edge31" to="edge267" number="1"/>
        <flow id="291" from="edge31" to="edge25" number="1"/>
        <flow id="292" from="edge31" to="edge83" number="1"/>
        <flow id="293" from="edge276" to="edge271" number="1"/>
        <flow id="294" from="edge276" to="edge169" number="1"/>
        <flow id="295" from="edge276" to="edge30" number="1"/>
    </interval>
    <interval begin="4500" end="5400">
        <flow id="296" from="edge225.0" to="edge3262" number="2"/>
        <flow id="297" from="edge246" to="edge271" number="1"/>
        <flow id="298" from="edge246" to="edge169" number="1"/>
        <flow id="299" from="edge246" to="edge50" number="1"/>
        <flow id="300" from="edge246" to="edge120" number="1"/>
        <flow id="301" from="edge246" to="edge118" number="1"/>
        <flow id="302" from="edge246" to="edge119" number="2"/>
        <flow id="303" from="edge246" to="edge25" number="1"/>
        <flow id="304" from="edge246" to="edge180" number="1"/>
        <flow id="305" from="edge246" to="edge83" number="1"/>
        <flow id="306" from="edge140" to="edge68" number="4"/>
        <flow id="307" from="edge140" to="edge3263" number="1"/>
        <flow id="308" from="edge140" to="edge3356" number="1"/>
        <flow id="309" from="edge140" to="edge118" number="1"/>
        <flow id="310" from="edge140" to="edge180" number="1"/>
        <flow id="311" from="edge93" to="edge8" number="1"/>
        <flow id="312" from="edge93" to="edge80" number="3"/>
        <flow id="313" from="edge93" to="edge16" number="1"/>
        <flow id="314" from="edge93" to="edge267" number="1"/>
        <flow id="315" from="edge116" to="edge180" number="1"/>
        <flow id="316" from="edge116" to="edge83" number="1"/>
        <flow id="317" from="edge117" to="edge118" number="1"/>
        <flow id="318" from="edge117" to="edge267" number="1"/>
        <flow id="319" from="edge104" to="edge83" number="1"/>
        <flow id="320" from="edge272" to="edge267" number="2"/>
        <flow id="321" from="edge125" to="edge83" number="1"/>
        <flow id="322" from="edge3351" to="edge118" number="1"/>
        <flow id="323" from="edge3267" to="edge120" number="1"/>
        <flow id="324" from="edge100" to="edge83" number="1"/>
        <flow id="325" from="edge255" to="edge68" number="1"/>
        <flow id="326" from="edge255" to="edge294" number="1"/>
        <flow id="327" from="edge255" to="edge119" number="1"/>
        <flow id="328" from="edge255" to="edge30" number="1"/>
        <flow id="329" from="edge172" to="edge127" number="1"/>
        <flow id="330" from="edge172" to="edge80" number="1"/>
        <flow id="331" from="edge172" to="edge83" number="1"/>
        <flow id="332" from="edge31" to="edge120" number="1"/>
        <flow id="333" from="edge31" to="edge118" number="2"/>
        <flow id="334" from="edge31" to="edge83" number="1"/>
        <flow id="335" from="edge276" to="edge294" number="2"/>
        <flow id="336" from="edge276" to="edge127" number="1"/>
        <flow id="337" from="edge276" to="edge169" number="1"/>
    </interval>
    <interval begin="5400" end="6300">
        <flow id="338" from="edge246" to="edge3262" number="1"/>
        <flow id="339" from="edge246" to="edge271" number="1"/>
        <flow id="340" from="edge246" to="edge80" number="2"/>
        <flow id="341" from="edge246" to="edge50" number="2"/>
        <flow id="342" from="edge246" to="edge118" number="1"/>
        <flow id="343" from="edge246" to="edge83" number="2"/>
        <flow id="344" from="edge246" to="edge30" number="1"/>
        <flow id="345" from="edge140" to="edge74" number="1"/>
        <flow id="346" from="edge140" to="edge118" number="1"/>
        <flow id="347" from="edge140" to="edge119" number="1"/>
        <flow id="348" from="edge140" to="edge25" number="1"/>
        <flow id="349" from="edge140" to="edge180" number="2"/>
        <flow id="350" from="edge93" to="edge8" number="2"/>
        <flow id="351" from="edge93" to="edge3179" number="1"/>
        <flow id="352" from="edge93" to="edge3263" number="1"/>
        <flow id="353" from="edge93" to="edge127" number="1"/>
        <flow id="354" from="edge93" to="edge118" number="1"/>
        <flow id="355" from="edge93" to="edge3350" number="1"/>
        <flow id="356" from="edge93" to="edge83" number="1"/>
        <flow id="357" from="edge113" to="edge294" number="1"/>
        <flow id="358" from="edge113" to="edge83" number="1"/>
        <flow id="359" from="edge116" to="edge3263" number="1"/>
        <flow id="360" from="edge116" to="edge25" number="1"/>
        <flow id="361" from="edge117" to="edge180" number="1"/>
        <flow id="362" from="edge23" to="edge267" number="1"/>
        <flow id="363" from="edge23" to="edge83" number="1"/>
        <flow id="364" from="edge3351" to="edge3027" number="1"/>
        <flow id="365" from="edge3351" to="edge180" number="1"/>
        <flow id="366" from="edge3268" to="edge83" number="1"/>
        <flow id="367" from="edge255" to="edge120" number="1"/>
        <flow id="368" from="edge255" to="edge118" number="1"/>
        <flow id="369" from="edge255" to="edge83" number="2"/>
        <flow id="370" from="edge172" to="edge294" number="1"/>
        <flow id="371" from="edge172" to="edge267" number="1"/>
        <flow id="372" from="edge172" to="edge83" number="1"/>
        <flow id="373" from="edge31" to="edge119" number="1"/>
        <flow id="374" from="edge31" to="edge83" number="1"/>
        <flow id="375" from="edge276" to="edge3263" number="1"/>
        <flow id="376" from="edge276" to="edge50" number="1"/>
        <flow id="377" from="edge276" to="edge30" number="1"/>
    </interval>
    <interval begin="6300" end="7200">
        <flow id="378" from="edge225.0" to="edge3262" number="1"/>
        <flow id="379" from="edge225.0" to="edge83" number="1"/>
        <flow id="380" from="edge246" to="edge127" number="2"/>
        <flow id="381" from="edge246" to="edge3117" number="1"/>
        <flow id="382" from="edge246" to="edge83" number="3"/>
        <flow id="383" from="edge246" to="edge30" number="1"/>
        <flow id="384" from="edge140" to="edge68" number="1"/>
        <flow id="385" from="edge140" to="edge127" number="1"/>
        <flow id="386" from="edge140" to="edge3117" number="1"/>
        <flow id="387" from="edge140" to="edge3350" number="1"/>
        <flow id="388" from="edge140" to="edge180" number="1"/>
        <flow id="389" from="edge140" to="edge83" number="3"/>
        <flow id="390" from="edge93" to="edge120" number="1"/>
        <flow id="391" from="edge93" to="edge13" number="2"/>
        <flow id="392" from="edge93" to="edge16" number="1"/>
        <flow id="393" from="edge93" to="edge12" number="1"/>
        <flow id="394" from="edge113" to="edge25" number="1"/>
        <flow id="395" from="edge113" to="edge83" number="2"/>
        <flow id="396" from="edge0" to="edge180" number="1"/>
        <flow id="397" from="edge104" to="edge83" number="2"/>
        <flow id="398" from="edge3351" to="edge267" number="1"/>
        <flow id="399" from="edge3351" to="edge25" number="1"/>
        <flow id="400" from="edge3351" to="edge83" number="1"/>
        <flow id="401" from="edge3268" to="edge267" number="1"/>
        <flow id="402" from="edge3269" to="edge83" number="1"/>
        <flow id="403" from="edge161" to="edge83" number="1"/>
        <flow id="404" from="edge159" to="edge83" number="1"/>
        <flow id="405" from="edge255" to="edge8" number="2"/>
        <flow id="406" from="edge255" to="edge80" number="2"/>
        <flow id="407" from="edge172" to="edge267" number="1"/>
        <flow id="408" from="edge172" to="edge83" number="2"/>
        <flow id="409" from="edge276" to="edge8" number="1"/>
        <flow id="410" from="edge276" to="edge120" number="1"/>
    </interval>
    <interval begin="7200" end="8100">
        <flow id="411" from="edge225.0" to="edge294" number="1"/>
        <flow id="412" from="edge225.0" to="edge3179" number="1"/>
        <flow id="413" from="edge246" to="edge3262" number="1"/>
        <flow id="414" from="edge246" to="edge3263" number="2"/>
        <flow id="415" from="edge246" to="edge271" number="1"/>
        <flow id="416" from="edge246" to="edge127" number="1"/>
        <flow id="417" from="edge246" to="edge3117" number="1"/>
        <flow id="418" from="edge246" to="edge3350" number="2"/>
        <flow id="419" from="edge246" to="edge16" number="1"/>
        <flow id="420" from="edge246" to="edge83" number="1"/>
        <flow id="421" from="edge140" to="edge3262" number="1"/>
        <flow id="422" from="edge140" to="edge3263" number="1"/>
        <flow id="423" from="edge140" to="edge3117" number="1"/>
        <flow id="424" from="edge140" to="edge267" number="1"/>
        <flow id="425" from="edge140" to="edge83" number="1"/>
        <flow id="426" from="edge93" to="edge3262" number="1"/>
        <flow id="427" from="edge93" to="edge127" number="1"/>
        <flow id="428" from="edge93" to="edge3117" number="1"/>
        <flow id="429" from="edge93" to="edge16" number="1"/>
        <flow id="430" from="edge93" to="edge25" number="1"/>
        <flow id="431" from="edge113" to="edge3262" number="1"/>
        <flow id="432" from="edge116" to="edge50" number="1"/>
        <flow id="433" from="edge117" to="edge271" number="1"/>
        <flow id="434" from="edge117" to="edge13" number="2"/>
        <flow id="435" from="edge262" to="edge267" number="1"/>
        <flow id="436" from="edge0" to="edge83" number="1"/>
        <flow id="437" from="edge3351" to="edge8" number="2"/>
        <flow id="438" from="edge3267" to="edge13" number="1"/>
        <flow id="439" from="edge3269" to="edge180" number="1"/>
        <flow id="440" from="edge3269" to="edge83" number="1"/>
        <flow id="441" from="edge100" to="edge25" number="1"/>
        <flow id="442" from="edge255" to="edge68" number="1"/>
        <flow id="443" from="edge255" to="edge3350" number="1"/>
        <flow id="444" from="edge255" to="edge12" number="1"/>
        <flow id="445" from="edge255" to="edge83" number="1"/>
        <flow id="446" from="edge255" to="edge30" number="1"/>
        <flow id="447" from="edge172" to="edge3263" number="1"/>
        <flow id="448" from="edge172" to="edge127" number="1"/>
        <flow id="449" from="edge31" to="edge50" number="1"/>
        <flow id="450" from="edge276" to="edge3263" number="1"/>
        <flow id="451" from="edge276" to="edge267" number="1"/>
        <flow id="452" from="edge276" to="edge180" number="1"/>
        <flow id="453" from="edge276" to="edge30" number="1"/>
    </interval>
    <interval begin="8100" end="9000">
        <flow id="454" from="edge225.0" to="edge294" number="1"/>
        <flow id="455" from="edge246" to="edge8" number="2"/>
        <flow id="456" from="edge246" to="edge3263" number="2"/>
        <flow id="457" from="edge246" to="edge74" number="1"/>
        <flow id="458" from="edge246" to="edge80" number="1"/>
        <flow id="459" from="edge246" to="edge169" number="1"/>
        <flow id="460" from="edge246" to="edge119" number="1"/>
        <flow id="461" from="edge246" to="edge16" number="1"/>
        <flow id="462" from="edge140" to="edge3262" number="2"/>
        <flow id="463" from="edge140" to="edge74" number="1"/>