<routes>
    <!--PASSENGER CAR-->
    <vType id="car" length="4.3" minGap="2.5"
        accel="2.6" decel="4.5" sigma="0.5" maxSpeed="50"
        color="240,228,66"/>
    <!--MOTORCYCLE-->
    <vType id="motorcycle" length="2.2" minGap="2.5"
        accel="5.0" decel="9.0" sigma="0.5" maxSpeed="55"
        color="36,255,36"/>
    <!--LGV-->
    <vType id="lgv" length="6.5" minGap="2.5"
        accel="2.0" decel="4.0" sigma="0.5" maxSpeed="44"
        color="86,180,233"/>
    <!--HGV-->
    <vType id="hgv" length="7.1" minGap="2.5"
        accel="1.3" decel="3.5" sigma="0.5" maxSpeed="36"
        color="0,158,115"/>
    <!--BUS-->
    <vType id="bus" length="12.0" minGap="2.5"
        accel="1.0" decel="3.5" sigma="0.5" maxSpeed="24"
        color="255,109,182"/>

    <route id="0" edges="1:0 0:2"/>
    <route id="1" edges="1:0 0:3"/>
    <route id="2" edges="1:0 0:4"/>
    <route id="3" edges="2:0 0:1"/>
    <route id="4" edges="2:0 0:3"/>
    <route id="5" edges="2:0 0:4"/>
    <route id="6" edges="3:0 0:1"/>
    <route id="7" edges="3:0 0:2"/>
    <route id="8" edges="3:0 0:4"/>
    <route id="9" edges="4:0 0:1"/>
    <route id="10" edges="4:0 0:2"/>
    <route id="11" edges="4:0 0:3"/>

    <vehicle id="0" type="car" route="0" depart="0" departLane="best" departSpeed="max"/>
    <vehicle id="1" type="car" route="1" depart="350" departLane="best" departSpeed="max"/>
    <vehicle id="2" type="car" route="2" depart="700" departLane="best" departSpeed="max"/>
    <vehicle id="3" type="car" route="3" depart="1050" departLane="best" departSpeed="max"/>
    <vehicle id="4" type="car" route="4" depart="1400" departLane="best" departSpeed="max"/>
    <vehicle id="5" type="car" route="5" depart="1750" departLane="best" departSpeed="max"/>
    <vehicle id="6" type="car" route="6" depart="2100" departLane="best" departSpeed="max"/>
    <vehicle id="7" type="car" route="7" depart="2450" departLane="best" departSpeed="max"/>
    <vehicle id="8" type="car" route="8" depart="2800" departLane="best" departSpeed="max"/>
    <vehicle id="9" type="car" route="9" depart="3150" departLane="best" departSpeed="max"/>
    <vehicle id="10" type="car" route="10" depart="3500" departLane="best" departSpeed="max"/>
    <vehicle id="11" type="car" route="11" depart="3850" departLane="best" departSpeed="max"/>
    <vehicle id="12" type="bus" route="0" depart="4200" departLane="best" departSpeed="max"/>
    <vehicle id="13" type="bus" route="1" depart="4550" departLane="best" departSpeed="max"/>
    <vehicle id="14" type="bus" route="2" depart="4900" departLane="best" departSpeed="max"/>
    <vehicle id="15" type="bus" route="3" depart="5250" departLane="best" departSpeed="max"/>
    <vehicle id="16" type="bus" route="4" depart="5600" departLane="best" departSpeed="max"/>
    <vehicle id="17" type="bus" route="5" depart="5950" departLane="best" departSpeed="max"/>
    <vehicle id="18" type="bus" route="6" depart="6300" departLane="best" departSpeed="max"/>
    <vehicle id="19" type="bus" route="7" depart="6650" departLane="best" departSpeed="max"/>
    <vehicle id="20" type="bus" route="8" depart="7000" departLane="best" departSpeed="max"/>
    <vehicle id="21" type="bus" route="9" depart="7350" departLane="best" departSpeed="max"/>
    <vehicle id="22" type="bus" route="10" depart="7700" departLane="best" departSpeed="max"/>
    <vehicle id="23" type="bus" route="11" depart="8050" departLane="best" departSpeed="max"/>
    <vehicle id="24" type="lgv" route="0" depart="8400" departLane="best" departSpeed="max"/>
    <vehicle id="25" type="lgv" route="1" depart="8750" departLane="best" departSpeed="max"/>
    <vehicle id="26" type="lgv" route="2" depart="9100" departLane="best" departSpeed="max"/>
    <vehicle id="27" type="lgv" route="3" depart="9450" departLane="best" departSpeed="max"/>
    <vehicle id="28" type="lgv" route="4" depart="9800" departLane="best" departSpeed="max"/>
    <vehicle id="29" type="lgv" route="5" depart="10150" departLane="best" departSpeed="max"/>
    <vehicle id="30" type="lgv" route="6" depart="10500" departLane="best" departSpeed="max"/>
    <vehicle id="31" type="lgv" route="7" depart="10850" departLane="best" departSpeed="max"/>
    <vehicle id="32" type="lgv" route="8" depart="11200" departLane="best" departSpeed="max"/>
    <vehicle id="33" type="lgv" route="9" depart="11550" departLane="best" departSpeed="max"/>
    <vehicle id="34" type="lgv" route="10" depart="11900" departLane="best" departSpeed="max"/>
    <vehicle id="35" type="lgv" route="11" depart="12250" departLane="best" departSpeed="max"/>
    <vehicle id="36" type="hgv" route="0" depart="12600" departLane="best" departSpeed="max"/>
    <vehicle id="37" type="hgv" route="1" depart="12950" departLane="best" departSpeed="max"/>
    <vehicle id="38" type="hgv" route="2" depart="13300" departLane="best" departSpeed="max"/>
    <vehicle id="39" type="hgv" route="3" depart="13650" departLane="best" departSpeed="max"/>
    <vehicle id="40" type="hgv" route="4" depart="14000" departLane="best" departSpeed="max"/>
    <vehicle id="41" type="hgv" route="5" depart="14350" departLane="best" departSpeed="max"/>
    <vehicle id="42" type="hgv" route="6" depart="14700" departLane="best" departSpeed="max"/>
    <vehicle id="43" type="hgv" route="7" depart="15050" departLane="best" departSpeed="max"/>
    <vehicle id="44" type="hgv" route="8" depart="15400" departLane="best" departSpeed="max"/>
    <vehicle id="45" type="hgv" route="9" depart="15750" departLane="best" departSpeed="max"/>
    <vehicle id="46" type="hgv" route="10" depart="16100" departLane="best" departSpeed="max"/>
    <vehicle id="47" type="hgv" route="11" depart="16450" departLane="best" departSpeed="max"/>
    <vehicle id="48" type="motorcycle" route="0" depart="16800" departLane="best" departSpeed="max"/>
    <vehicle id="49" type="motorcycle" route="1" depart="17150" departLane="best" departSpeed="max"/>
    <vehicle id="50" type="motorcycle" route="2" depart="17500" departLane="best" departSpeed="max"/>
    <vehicle id="51" type="motorcycle" route="3" depart="17850" departLane="best" departSpeed="max"/>
    <vehicle id="52" type="motorcycle" route="4" depart="18200" departLane="best" departSpeed="max"/>
    <vehicle id="53" type="motorcycle" route="5" depart="18550" departLane="best" departSpeed="max"/>
    <vehicle id="54" type="motorcycle" route="6" depart="18900" departLane="best" departSpeed="max"/>
    <vehicle id="55" type="motorcycle" route="7" depart="19250" departLane="best" departSpeed="max"/>
    <vehicle id="56" type="motorcycle" route="8" depart="19600" departLane="best" departSpeed="max"/>
    <vehicle id="57" type="motorcycle" route="9" depart="19950" departLane="best" departSpeed="max"/>
    <vehicle id="58" type="motorcycle" route="10" depart="20300" departLane="best" departSpeed="max"/>
    <vehicle id="59" type="motorcycle" route="11" depart="20650" departLane="best" departSpeed="max"/>
</routes>
