<routes>
    <!--PASSENGER CAR-->
    <vType id="car" length="4.3" minGap="2.5"
        accel="2.6" decel="4.5" sigma="0.5" maxSpeed="50"
        color="240,228,66"/>
    <!--MOTORCYCLE-->
    <vType id="motorcycle" length="2.2" minGap="2.5"
        accel="5.0" decel="9.0" sigma="0.5" maxSpeed="55"
        color="36,255,36"/>
    <!--LGV-->
    <vType id="lgv" length="6.5" minGap="2.5"
        accel="2.0" decel="4.0" sigma="0.5" maxSpeed="44"
        color="86,180,233"/>
    <!--HGV-->
    <vType id="hgv" length="7.1" minGap="2.5"
        accel="1.3" decel="3.5" sigma="0.5" maxSpeed="36"
        color="0,158,115"/>
    <!--BUS-->
    <vType id="bus" length="12.0" minGap="2.5"
        accel="1.0" decel="3.5" sigma="0.5" maxSpeed="24"
        color="255,109,182"/>

    <route id="0" edges="2:0 0:1 1:3 3:7"/>
    <route id="1" edges="2:0 0:1 1:5 5:6"/>
    <route id="2" edges="6:5 5:1 1:0 0:2"/>
    <route id="3" edges="6:5 5:1 1:3 3:7"/>
    <route id="4" edges="7:3 3:1 1:0 0:2"/>
    <route id="5" edges="7:3 3:1 1:5 5:6"/>

    <vehicle id="0" type="car" route="0" depart="0" departLane="best" departSpeed="max"/>
    <vehicle id="1" type="car" route="1" depart="350" departLane="best" departSpeed="max"/>
    <vehicle id="2" type="car" route="2" depart="700" departLane="best" departSpeed="max"/>
    <vehicle id="3" type="car" route="3" depart="1050" departLane="best" departSpeed="max"/>
    <vehicle id="4" type="car" route="4" depart="1400" departLane="best" departSpeed="max"/>
    <vehicle id="5" type="car" route="5" depart="1750" departLane="best" departSpeed="max"/>
    <vehicle id="6" type="bus" route="0" depart="2100" departLane="best" departSpeed="max"/>
    <vehicle id="7" type="bus" route="1" depart="2450" departLane="best" departSpeed="max"/>
    <vehicle id="8" type="bus" route="2" depart="2800" departLane="best" departSpeed="max"/>
    <vehicle id="9" type="bus" route="3" depart="3150" departLane="best" departSpeed="max"/>
    <vehicle id="10" type="bus" route="4" depart="3500" departLane="best" departSpeed="max"/>
    <vehicle id="11" type="bus" route="5" depart="3850" departLane="best" departSpeed="max"/>
    <vehicle id="12" type="lgv" route="0" depart="4200" departLane="best" departSpeed="max"/>
    <vehicle id="13" type="lgv" route="1" depart="4550" departLane="best" departSpeed="max"/>
    <vehicle id="14" type="lgv" route="2" depart="4900" departLane="best" departSpeed="max"/>
    <vehicle id="15" type="lgv" route="3" depart="5250" departLane="best" departSpeed="max"/>
    <vehicle id="16" type="lgv" route="4" depart="5600" departLane="best" departSpeed="max"/>
    <vehicle id="17" type="lgv" route="5" depart="5950" departLane="best" departSpeed="max"/>
    <vehicle id="18" type="hgv" route="0" depart="6300" departLane="best" departSpeed="max"/>
    <vehicle id="19" type="hgv" route="1" depart="6650" departLane="best" departSpeed="max"/>
    <vehicle id="20" type="hgv" route="2" depart="7000" departLane="best" departSpeed="max"/>
    <vehicle id="21" type="hgv" route="3" depart="7350" departLane="best" departSpeed="max"/>
    <vehicle id="22" type="hgv" route="4" depart="7700" departLane="best" departSpeed="max"/>
    <vehicle id="23" type="hgv" route="5" depart="8050" departLane="best" departSpeed="max"/>
    <vehicle id="24" type="motorcycle" route="0" depart="8400" departLane="best" departSpeed="max"/>
    <vehicle id="25" type="motorcycle" route="1" depart="8750" departLane="best" departSpeed="max"/>
    <vehicle id="26" type="motorcycle" route="2" depart="9100" departLane="best" departSpeed="max"/>
    <vehicle id="27" type="motorcycle" route="3" depart="9450" departLane="best" departSpeed="max"/>
    <vehicle id="28" type="motorcycle" route="4" depart="9800" departLane="best" departSpeed="max"/>
    <vehicle id="29" type="motorcycle" route="5" depart="10150" departLane="best" departSpeed="max"/>
</routes>
