<?xml version="1.0" encoding="UTF-8"?>
<routes xmlns:xsi="http://www.w3.org/2001/XMLSchema-instance" xsi:noNamespaceSchemaLocation="http://sumo.dlr.de/xsd/routes_file.xsd">
    <route id="0" edges="10:9 9:0 0:2 2:8"/>
    <route id="1" edges="10:9 9:0 0:1 1:3 3:7"/>
    <route id="2" edges="10:9 9:0 0:1 1:5 5:6"/>
    <route id="3" edges="6:5 5:1 1:0 0:2 2:8"/>
    <route id="4" edges="6:5 5:1 1:3 3:7"/>
    <route id="5" edges="6:5 5:1 1:0 0:9 9:10"/>
    <route id="6" edges="7:3 3:1 1:0 0:2 2:8"/>
    <route id="7" edges="7:3 3:1 1:5 5:6"/>
    <route id="8" edges="7:3 3:1 1:0 0:9 9:10"/>
    <route id="9" edges="8:2 2:0 0:1 1:3 3:7"/>
    <route id="10" edges="8:2 2:0 0:1 1:5 5:6"/>
    <route id="11" edges="8:2 2:0 0:9 9:10"/>
</routes>
