<routes>
    <vType id="typeHuman" accel="2.6" decel="4.5" sigma="0.5" length="5" minGap="2.5" maxSpeed="25" guiShape="passenger" color="1,1,0">
    </vType>

    <vType id="typeITSCV" accel="2.6" decel="4.5" sigma="0.5" length="5" minGap="2.5" maxSpeed="25" guiShape="passenger" color="1,0,0">
        <carFollowing-Krauss tau="1.0"/>
    </vType>

    <route id="8to6" edges="8:2 2:0 0:1 1:5 5:6" />
    <route id="8to7" edges="8:2 2:0 0:1 1:3 3:7" />
    <route id="8to10" edges="8:2 2:0 0:9 9:10" />
    <route id="7to6" edges="7:3 3:1 1:5 5:6" />
    <route id="7to8" edges="7:3 3:1 1:0 0:2 2:8" />
    <route id="7to10" edges="7:3 3:1 1:0 0:9 9:10" />
    <route id="6to8" edges="6:5 5:1 1:0 0:2 2:8" />
    <route id="6to7" edges="6:5 5:1 1:3 3:7" />
    <route id="6to10" edges="6:5 5:1 1:0 0:9 9:10" />
    <route id="10to6" edges="10:9 9:0 0:1 1:5 5:6" />
    <route id="10to7" edges="10:9 9:0 0:1 1:3 3:7" />
    <route id="10to8" edges="10:9 9:0 0:2 2:8" />
    
    <vehicle id="0" type="typeHuman" route="7to6" depart="1"  departLane="best" departSpeed="max"/>
    <vehicle id="1" type="typeITSCV" route="6to10" depart="1"  departLane="best" departSpeed="max"/>
    <vehicle id="2" type="typeITSCV" route="8to6" depart="2"  departLane="best" departSpeed="max"/>
    <vehicle id="3" type="typeHuman" route="7to8" depart="3"  departLane="best" departSpeed="max"/>
    <vehicle id="4" type="typeITSCV" route="10to7" depart="3"  departLane="best" departSpeed="max"/>
    <vehicle id="5" type="typeITSCV" route="8to7" depart="5"  departLane="best" departSpeed="max"/>
    <vehicle id="6" type="typeITSCV" route="7to10" depart="7"  departLane="best" departSpeed="max"/>
    <vehicle id="7" type="typeHuman" route="7to8" depart="8"  departLane="best" departSpeed="max"/>
    <vehicle id="8" type="typeHuman" route="7to8" depart="9"  departLane="best" departSpeed="max"/>
    <vehicle id="9" type="typeITSCV" route="8to7" depart="10"  departLane="best" departSpeed="max"/>
    <vehicle id="10" type="typeITSCV" route="6to10" depart="10"  departLane="best" departSpeed="max"/>
    <vehicle id="11" type="typeITSCV" route="10to7" depart="11"  departLane="best" departSpeed="max"/>
    <vehicle id="12" type="typeITSCV" route="8to10" depart="12"  departLane="best" departSpeed="max"/>
    <vehicle id="13" type="typeHuman" route="8to7" depart="15"  departLane="best" departSpeed="max"/>
    <vehicle id="14" type="typeITSCV" route="8to10" depart="15"  departLane="best" departSpeed="max"/>
    <vehicle id="15" type="typeITSCV" route="10to7" depart="15"  departLane="best" departSpeed="max"/>
    <vehicle id="16" type="typeHuman" route="8to7" depart="16"  departLane="best" departSpeed="max"/>
    <vehicle id="17" type="typeHuman" route="10to7" depart="18"  departLane="best" departSpeed="max"/>
    <vehicle id="18" type="typeHuman" route="10to8" depart="18"  departLane="best" departSpeed="max"/>
    <vehicle id="19" type="typeITSCV" route="7to6" depart="19"  departLane="best" departSpeed="max"/>
    <vehicle id="20" type="typeHuman" route="7to10" depart="19"  departLane="best" departSpeed="max"/>
    <vehicle id="21" type="typeITSCV" route="6to10" depart="19"  departLane="best" departSpeed="max"/>
    <vehicle id="22" type="typeITSCV" route="7to10" depart="20"  departLane="best" departSpeed="max"/>
    <vehicle id="23" type="typeHuman" route="7to8" depart="24"  departLane="best" departSpeed="max"/>
    <vehicle id="24" type="typeHuman" route="7to10" depart="24"  departLane="best" departSpeed="max"/>
    <vehicle id="25" type="typeHuman" route="7to8" depart="27"  departLane="best" departSpeed="max"/>
    <vehicle id="26" type="typeITSCV" route="7to10" depart="29"  departLane="best" departSpeed="max"/>
    <vehicle id="27" type="typeITSCV" route="8to7" depart="30"  departLane="best" departSpeed="max"/>
    <vehicle id="28" type="typeITSCV" route="8to10" depart="33"  departLane="best" departSpeed="max"/>
    <vehicle id="29" type="typeITSCV" route="8to7" depart="34"  departLane="best" departSpeed="max"/>
    <vehicle id="30" type="typeITSCV" route="7to10" depart="34"  departLane="best" departSpeed="max"/>
    <vehicle id="31" type="typeHuman" route="6to10" depart="35"  departLane="best" departSpeed="max"/>
    <vehicle id="32" type="typeHuman" route="7to10" depart="36"  departLane="best" departSpeed="max"/>
    <vehicle id="33" type="typeITSCV" route="7to8" depart="38"  departLane="best" departSpeed="max"/>
    <vehicle id="34" type="typeITSCV" route="6to8" depart="38"  departLane="best" departSpeed="max"/>
    <vehicle id="35" type="typeITSCV" route="10to7" depart="39"  departLane="best" departSpeed="max"/>
    <vehicle id="36" type="typeITSCV" route="7to10" depart="40"  departLane="best" departSpeed="max"/>
    <vehicle id="37" type="typeHuman" route="7to10" depart="41"  departLane="best" departSpeed="max"/>
    <vehicle id="38" type="typeITSCV" route="10to8" depart="42"  departLane="best" departSpeed="max"/>
    <vehicle id="39" type="typeITSCV" route="8to6" depart="43"  departLane="best" departSpeed="max"/>
    <vehicle id="40" type="typeHuman" route="7to10" depart="43"  departLane="best" departSpeed="max"/>
    <vehicle id="41" type="typeITSCV" route="6to7" depart="47"  departLane="best" departSpeed="max"/>
    <vehicle id="42" type="typeITSCV" route="8to7" depart="48"  departLane="best" departSpeed="max"/>
    <vehicle id="43" type="typeHuman" route="7to10" depart="50"  departLane="best" departSpeed="max"/>
    <vehicle id="44" type="typeITSCV" route="8to7" depart="51"  departLane="best" departSpeed="max"/>
    <vehicle id="45" type="typeHuman" route="8to7" depart="54"  departLane="best" departSpeed="max"/>
    <vehicle id="46" type="typeITSCV" route="7to8" depart="54"  departLane="best" departSpeed="max"/>
    <vehicle id="47" type="typeITSCV" route="8to7" depart="55"  departLane="best" departSpeed="max"/>
    <vehicle id="48" type="typeITSCV" route="7to8" depart="55"  departLane="best" departSpeed="max"/>
    <vehicle id="49" type="typeHuman" route="7to10" depart="55"  departLane="best" departSpeed="max"/>
    <vehicle id="50" type="typeITSCV" route="8to7" depart="59"  departLane="best" departSpeed="max"/>
    <vehicle id="51" type="typeITSCV" route="7to10" depart="59"  departLane="best" departSpeed="max"/>
    <vehicle id="52" type="typeHuman" route="7to8" depart="61"  departLane="best" departSpeed="max"/>
    <vehicle id="53" type="typeITSCV" route="8to7" depart="62"  departLane="best" departSpeed="max"/>
    <vehicle id="54" type="typeHuman" route="7to8" depart="63"  departLane="best" departSpeed="max"/>
    <vehicle id="55" type="typeHuman" route="7to10" depart="63"  departLane="best" departSpeed="max"/>
    <vehicle id="56" type="typeITSCV" route="6to8" depart="66"  departLane="best" departSpeed="max"/>
    <vehicle id="57" type="typeHuman" route="10to8" depart="66"  departLane="best" departSpeed="max"/>
    <vehicle id="58" type="typeITSCV" route="7to8" depart="69"  departLane="best" departSpeed="max"/>
    <vehicle id="59" type="typeITSCV" route="7to10" depart="69"  departLane="best" departSpeed="max"/>
    <vehicle id="60" type="typeITSCV" route="7to10" depart="70"  departLane="best" departSpeed="max"/>
    <vehicle id="61" type="typeITSCV" route="10to8" depart="70"  departLane="best" departSpeed="max"/>
    <vehicle id="62" type="typeITSCV" route="7to10" depart="75"  departLane="best" departSpeed="max"/>
    <vehicle id="63" type="typeITSCV" route="7to8" depart="76"  departLane="best" departSpeed="max"/>
    <vehicle id="64" type="typeITSCV" route="7to6" depart="77"  departLane="best" departSpeed="max"/>
    <vehicle id="65" type="typeHuman" route="7to8" depart="77"  departLane="best" departSpeed="max"/>
    <vehicle id="66" type="typeHuman" route="8to7" depart="79"  departLane="best" departSpeed="max"/>
    <vehicle id="67" type="typeITSCV" route="8to7" depart="80"  departLane="best" departSpeed="max"/>
    <vehicle id="68" type="typeITSCV" route="10to8" depart="81"  departLane="best" departSpeed="max"/>
    <vehicle id="69" type="typeITSCV" route="6to10" depart="82"  departLane="best" departSpeed="max"/>
    <vehicle id="70" type="typeHuman" route="7to8" depart="84"  departLane="best" departSpeed="max"/>
    <vehicle id="71" type="typeITSCV" route="7to10" depart="84"  departLane="best" departSpeed="max"/>
    <vehicle id="72" type="typeITSCV" route="7to6" depart="87"  departLane="best" departSpeed="max"/>
    <vehicle id="73" type="typeHuman" route="8to7" depart="88"  departLane="best" departSpeed="max"/>
    <vehicle id="74" type="typeITSCV" route="7to6" depart="88"  departLane="best" departSpeed="max"/>
    <vehicle id="75" type="typeITSCV" route="10to7" depart="90"  departLane="best" departSpeed="max"/>
    <vehicle id="76" type="typeITSCV" route="7to8" depart="91"  departLane="best" departSpeed="max"/>
    <vehicle id="77" type="typeITSCV" route="7to10" depart="92"  departLane="best" departSpeed="max"/>
    <vehicle id="78" type="typeITSCV" route="10to8" depart="93"  departLane="best" departSpeed="max"/>
    <vehicle id="79" type="typeITSCV" route="7to10" depart="94"  departLane="best" departSpeed="max"/>
    <vehicle id="80" type="typeHuman" route="8to6" depart="95"  departLane="best" departSpeed="max"/>
    <vehicle id="81" type="typeITSCV" route="8to7" depart="96"  departLane="best" departSpeed="max"/>
    <vehicle id="82" type="typeITSCV" route="7to8" depart="97"  departLane="best" departSpeed="max"/>
    <vehicle id="83" type="typeITSCV" route="7to10" depart="97"  departLane="best" departSpeed="max"/>
    <vehicle id="84" type="typeITSCV" route="6to7" depart="98"  departLane="best" departSpeed="max"/>
    <vehicle id="85" type="typeITSCV" route="6to10" depart="99"  departLane="best" departSpeed="max"/>
    <vehicle id="86" type="typeITSCV" route="6to8" depart="100"  departLane="best" departSpeed="max"/>
    <vehicle id="87" type="typeITSCV" route="6to10" depart="100"  departLane="best" departSpeed="max"/>
    <vehicle id="88" type="typeITSCV" route="7to8" depart="101"  departLane="best" departSpeed="max"/>
    <vehicle id="89" type="typeITSCV" route="8to10" depart="102"  departLane="best" departSpeed="max"/>
    <vehicle id="90" type="typeITSCV" route="7to10" depart="103"  departLane="best" departSpeed="max"/>
    <vehicle id="91" type="typeITSCV" route="8to10" depart="105"  departLane="best" departSpeed="max"/>
    <vehicle id="92" type="typeITSCV" route="7to8" depart="105"  departLane="best" departSpeed="max"/>
    <vehicle id="93" type="typeITSCV" route="7to10" depart="105"  departLane="best" departSpeed="max"/>
    <vehicle id="94" type="typeITSCV" route="10to7" depart="105"  departLane="best" departSpeed="max"/>
    <vehicle id="95" type="typeITSCV" route="6to10" depart="107"  departLane="best" departSpeed="max"/>
    <vehicle id="96" type="typeITSCV" route="8to7" depart="108"  departLane="best" departSpeed="max"/>
    <vehicle id="97" type="typeITSCV" route="7to10" depart="108"  departLane="best" departSpeed="max"/>
    <vehicle id="98" type="typeITSCV" route="8to7" depart="111"  departLane="best" departSpeed="max"/>
    <vehicle id="99" type="typeITSCV" route="7to10" depart="111"  departLane="best" departSpeed="max"/>
    <vehicle id="100" type="typeITSCV" route="10to8" depart="113"  departLane="best" departSpeed="max"/>
    <vehicle id="101" type="typeHuman" route="10to6" depart="114"  departLane="best" departSpeed="max"/>
    <vehicle id="102" type="typeITSCV" route="10to8" depart="114"  departLane="best" departSpeed="max"/>
    <vehicle id="103" type="typeITSCV" route="7to8" depart="115"  departLane="best" departSpeed="max"/>
    <vehicle id="104" type="typeITSCV" route="8to7" depart="117"  departLane="best" departSpeed="max"/>
    <vehicle id="105" type="typeITSCV" route="8to10" depart="117"  departLane="best" departSpeed="max"/>
    <vehicle id="106" type="typeITSCV" route="8to6" depart="120"  departLane="best" departSpeed="max"/>
    <vehicle id="107" type="typeITSCV" route="8to7" depart="120"  departLane="best" departSpeed="max"/>
    <vehicle id="108" type="typeITSCV" route="6to8" depart="120"  departLane="best" departSpeed="max"/>
    <vehicle id="109" type="typeITSCV" route="6to10" depart="120"  departLane="best" departSpeed="max"/>
    <vehicle id="110" type="typeHuman" route="7to10" depart="121"  departLane="best" departSpeed="max"/>
    <vehicle id="111" type="typeITSCV" route="10to7" depart="121"  departLane="best" departSpeed="max"/>
    <vehicle id="112" type="typeITSCV" route="7to10" depart="123"  departLane="best" departSpeed="max"/>
    <vehicle id="113" type="typeITSCV" route="10to6" depart="123"  departLane="best" departSpeed="max"/>
    <vehicle id="114" type="typeITSCV" route="8to7" depart="125"  departLane="best" departSpeed="max"/>
    <vehicle id="115" type="typeITSCV" route="7to10" depart="125"  departLane="best" departSpeed="max"/>
    <vehicle id="116" type="typeITSCV" route="7to10" depart="127"  departLane="best" departSpeed="max"/>
    <vehicle id="117" type="typeITSCV" route="7to10" depart="130"  departLane="best" departSpeed="max"/>
    <vehicle id="118" type="typeITSCV" route="7to10" depart="131"  departLane="best" departSpeed="max"/>
    <vehicle id="119" type="typeITSCV" route="8to6" depart="133"  departLane="best" departSpeed="max"/>
    <vehicle id="120" type="typeHuman" route="7to8" depart="138"  departLane="best" departSpeed="max"/>
    <vehicle id="121" type="typeITSCV" route="7to10" depart="138"  departLane="best" departSpeed="max"/>
    <vehicle id="122" type="typeITSCV" route="8to6" depart="139"  departLane="best" departSpeed="max"/>
    <vehicle id="123" type="typeHuman" route="8to7" depart="142"  departLane="best" departSpeed="max"/>
    <vehicle id="124" type="typeITSCV" route="7to8" depart="142"  departLane="best" departSpeed="max"/>
    <vehicle id="125" type="typeITSCV" route="8to7" depart="143"  departLane="best" departSpeed="max"/>
    <vehicle id="126" type="typeHuman" route="8to7" depart="144"  departLane="best" departSpeed="max"/>
    <vehicle id="127" type="typeITSCV" route="10to7" depart="144"  departLane="best" departSpeed="max"/>
    <vehicle id="128" type="typeITSCV" route="7to8" depart="145"  departLane="best" departSpeed="max"/>
    <vehicle id="129" type="typeITSCV" route="10to6" depart="145"  departLane="best" departSpeed="max"/>
    <vehicle id="130" type="typeHuman" route="6to10" depart="147"  departLane="best" departSpeed="max"/>
    <vehicle id="131" type="typeITSCV" route="10to6" depart="148"  departLane="best" departSpeed="max"/>
    <vehicle id="132" type="typeITSCV" route="10to8" depart="148"  departLane="best" departSpeed="max"/>
    <vehicle id="133" type="typeHuman" route="7to10" depart="151"  departLane="best" departSpeed="max"/>
    <vehicle id="134" type="typeITSCV" route="6to8" depart="151"  departLane="best" departSpeed="max"/>
    <vehicle id="135" type="typeHuman" route="10to7" depart="151"  departLane="best" departSpeed="max"/>
    <vehicle id="136" type="typeHuman" route="8to7" depart="152"  departLane="best" departSpeed="max"/>
    <vehicle id="137" type="typeITSCV" route="8to7" depart="153"  departLane="best" departSpeed="max"/>
    <vehicle id="138" type="typeHuman" route="7to8" depart="153"  departLane="best" departSpeed="max"/>
    <vehicle id="139" type="typeHuman" route="7to10" depart="154"  departLane="best" departSpeed="max"/>
    <vehicle id="140" type="typeITSCV" route="6to7" depart="154"  departLane="best" departSpeed="max"/>
    <vehicle id="141" type="typeITSCV" route="7to10" depart="155"  departLane="best" departSpeed="max"/>
    <vehicle id="142" type="typeITSCV" route="6to8" depart="158"  departLane="best" departSpeed="max"/>
    <vehicle id="143" type="typeITSCV" route="7to10" depart="159"  departLane="best" departSpeed="max"/>
    <vehicle id="144" type="typeITSCV" route="10to6" depart="160"  departLane="best" departSpeed="max"/>
    <vehicle id="145" type="typeITSCV" route="8to7" depart="161"  departLane="best" departSpeed="max"/>
    <vehicle id="146" type="typeITSCV" route="8to7" depart="164"  departLane="best" departSpeed="max"/>
    <vehicle id="147" type="typeITSCV" route="10to6" depart="164"  departLane="best" departSpeed="max"/>
    <vehicle id="148" type="typeITSCV" route="7to10" depart="165"  departLane="best" departSpeed="max"/>
    <vehicle id="149" type="typeITSCV" route="7to10" depart="166"  departLane="best" departSpeed="max"/>
    <vehicle id="150" type="typeITSCV" route="8to10" depart="167"  departLane="best" departSpeed="max"/>
    <vehicle id="151" type="typeITSCV" route="10to8" depart="167"  departLane="best" departSpeed="max"/>
    <vehicle id="152" type="typeITSCV" route="8to10" depart="168"  departLane="best" departSpeed="max"/>
    <vehicle id="153" type="typeITSCV" route="10to6" depart="168"  departLane="best" departSpeed="max"/>
    <vehicle id="154" type="typeHuman" route="7to8" depart="169"  departLane="best" departSpeed="max"/>
    <vehicle id="155" type="typeITSCV" route="8to7" depart="170"  departLane="best" departSpeed="max"/>
    <vehicle id="156" type="typeITSCV" route="6to8" depart="173"  departLane="best" departSpeed="max"/>
    <vehicle id="157" type="typeHuman" route="7to10" depart="174"  departLane="best" departSpeed="max"/>
    <vehicle id="158" type="typeITSCV" route="10to6" depart="175"  departLane="best" departSpeed="max"/>
    <vehicle id="159" type="typeITSCV" route="8to7" depart="177"  departLane="best" departSpeed="max"/>
    <vehicle id="160" type="typeHuman" route="8to7" depart="178"  departLane="best" departSpeed="max"/>
    <vehicle id="161" type="typeITSCV" route="7to8" depart="178"  departLane="best" departSpeed="max"/>
    <vehicle id="162" type="typeITSCV" route="6to7" depart="178"  departLane="best" departSpeed="max"/>
    <vehicle id="163" type="typeITSCV" route="8to7" depart="179"  departLane="best" departSpeed="max"/>
    <vehicle id="164" type="typeITSCV" route="8to10" depart="179"  departLane="best" departSpeed="max"/>
    <vehicle id="165" type="typeHuman" route="7to8" depart="181"  departLane="best" departSpeed="max"/>
    <vehicle id="166" type="typeITSCV" route="8to10" depart="182"  departLane="best" departSpeed="max"/>
    <vehicle id="167" type="typeITSCV" route="10to8" depart="185"  departLane="best" departSpeed="max"/>
    <vehicle id="168" type="typeHuman" route="7to10" depart="187"  departLane="best" departSpeed="max"/>
    <vehicle id="169" type="typeITSCV" route="7to10" depart="188"  departLane="best" departSpeed="max"/>
    <vehicle id="170" type="typeHuman" route="6to8" depart="190"  departLane="best" departSpeed="max"/>
    <vehicle id="171" type="typeITSCV" route="7to8" depart="191"  departLane="best" departSpeed="max"/>
    <vehicle id="172" type="typeITSCV" route="8to7" depart="192"  departLane="best" departSpeed="max"/>
    <vehicle id="173" type="typeHuman" route="6to7" depart="195"  departLane="best" departSpeed="max"/>
    <vehicle id="174" type="typeITSCV" route="10to8" depart="195"  departLane="best" departSpeed="max"/>
    <vehicle id="175" type="typeITSCV" route="7to10" depart="200"  departLane="best" departSpeed="max"/>
    <vehicle id="176" type="typeHuman" route="7to10" depart="202"  departLane="best" departSpeed="max"/>
    <vehicle id="177" type="typeITSCV" route="8to7" depart="203"  departLane="best" departSpeed="max"/>
    <vehicle id="178" type="typeITSCV" route="7to8" depart="204"  departLane="best" departSpeed="max"/>
    <vehicle id="179" type="typeITSCV" route="8to6" depart="205"  departLane="best" departSpeed="max"/>
    <vehicle id="180" type="typeHuman" route="7to6" depart="206"  departLane="best" departSpeed="max"/>
    <vehicle id="181" type="typeITSCV" route="7to10" depart="208"  departLane="best" departSpeed="max"/>
    <vehicle id="182" type="typeITSCV" route="8to10" depart="209"  departLane="best" departSpeed="max"/>
    <vehicle id="183" type="typeITSCV" route="6to10" depart="209"  departLane="best" departSpeed="max"/>
    <vehicle id="184" type="typeITSCV" route="8to7" depart="210"  departLane="best" departSpeed="max"/>
    <vehicle id="185" type="typeITSCV" route="7to8" depart="211"  departLane="best" departSpeed="max"/>
    <vehicle id="186" type="typeITSCV" route="7to6" depart="213"  departLane="best" departSpeed="max"/>
    <vehicle id="187" type="typeHuman" route="7to8" depart="213"  departLane="best" departSpeed="max"/>
    <vehicle id="188" type="typeHuman" route="7to10" depart="215"  departLane="best" departSpeed="max"/>
    <vehicle id="189" type="typeITSCV" route="6to8" depart="215"  departLane="best" departSpeed="max"/>
    <vehicle id="190" type="typeITSCV" route="7to8" depart="216"  departLane="best" departSpeed="max"/>
    <vehicle id="191" type="typeITSCV" route="8to7" depart="217"  departLane="best" departSpeed="max"/>
    <vehicle id="192" type="typeHuman" route="7to8" depart="217"  departLane="best" departSpeed="max"/>
    <vehicle id="193" type="typeHuman" route="7to6" depart="218"  departLane="best" departSpeed="max"/>
    <vehicle id="194" type="typeITSCV" route="7to8" depart="218"  departLane="best" departSpeed="max"/>
    <vehicle id="195" type="typeITSCV" route="7to10" depart="218"  departLane="best" departSpeed="max"/>
    <vehicle id="196" type="typeITSCV" route="7to6" depart="219"  departLane="best" departSpeed="max"/>
    <vehicle id="197" type="typeITSCV" route="7to8" depart="220"  departLane="best" departSpeed="max"/>
    <vehicle id="198" type="typeITSCV" route="6to8" depart="221"  departLane="best" departSpeed="max"/>
    <vehicle id="199" type="typeITSCV" route="8to7" depart="222"  departLane="best" departSpeed="max"/>
    <vehicle id="200" type="typeITSCV" route="10to7" depart="222"  departLane="best" departSpeed="max"/>
    <vehicle id="201" type="typeHuman" route="7to10" depart="223"  departLane="best" departSpeed="max"/>
    <vehicle id="202" type="typeITSCV" route="6to10" depart="223"  departLane="best" departSpeed="max"/>
    <vehicle id="203" type="typeHuman" route="8to6" depart="224"  departLane="best" departSpeed="max"/>
    <vehicle id="204" type="typeITSCV" route="7to6" depart="224"  departLane="best" departSpeed="max"/>
    <vehicle id="205" type="typeITSCV" route="7to10" depart="224"  departLane="best" departSpeed="max"/>
    <vehicle id="206" type="typeITSCV" route="7to10" depart="225"  departLane="best" departSpeed="max"/>
    <vehicle id="207" type="typeHuman" route="6to10" depart="225"  departLane="best" departSpeed="max"/>
    <vehicle id="208" type="typeITSCV" route="8to7" depart="226"  departLane="best" departSpeed="max"/>
    <vehicle id="209" type="typeITSCV" route="6to8" depart="226"  departLane="best" departSpeed="max"/>
    <vehicle id="210" type="typeHuman" route="7to8" depart="227"  departLane="best" departSpeed="max"/>
    <vehicle id="211" type="typeITSCV" route="7to10" depart="228"  departLane="best" departSpeed="max"/>
    <vehicle id="212" type="typeITSCV" route="8to10" depart="230"  departLane="best" departSpeed="max"/>
    <vehicle id="213" type="typeITSCV" route="7to6" depart="230"  departLane="best" departSpeed="max"/>
    <vehicle id="214" type="typeITSCV" route="7to6" depart="232"  departLane="best" departSpeed="max"/>
    <vehicle id="215" type="typeHuman" route="7to8" depart="232"  departLane="best" departSpeed="max"/>
    <vehicle id="216" type="typeITSCV" route="10to7" depart="232"  departLane="best" departSpeed="max"/>
    <vehicle id="217" type="typeITSCV" route="7to8" depart="233"  departLane="best" departSpeed="max"/>
    <vehicle id="218" type="typeITSCV" route="7to10" depart="233"  departLane="best" departSpeed="max"/>
    <vehicle id="219" type="typeITSCV" route="6to8" depart="233"  departLane="best" departSpeed="max"/>
    <vehicle id="220" type="typeITSCV" route="8to7" depart="234"  departLane="best" departSpeed="max"/>
    <vehicle id="221" type="typeITSCV" route="8to7" depart="235"  departLane="best" departSpeed="max"/>
    <vehicle id="222" type="typeITSCV" route="10to8" depart="236"  departLane="best" departSpeed="max"/>
    <vehicle id="223" type="typeHuman" route="8to6" depart="238"  departLane="best" departSpeed="max"/>
    <vehicle id="224" type="typeITSCV" route="7to8" depart="239"  departLane="best" departSpeed="max"/>
    <vehicle id="225" type="typeITSCV" route="10to7" depart="239"  departLane="best" departSpeed="max"/>
    <vehicle id="226" type="typeHuman" route="7to8" depart="240"  departLane="best" departSpeed="max"/>
    <vehicle id="227" type="typeITSCV" route="10to8" depart="240"  departLane="best" departSpeed="max"/>
    <vehicle id="228" type="typeITSCV" route="7to8" depart="242"  departLane="best" departSpeed="max"/>
    <vehicle id="229" type="typeHuman" route="8to7" depart="243"  departLane="best" departSpeed="max"/>
    <vehicle id="230" type="typeITSCV" route="7to10" depart="245"  departLane="best" departSpeed="max"/>
    <vehicle id="231" type="typeITSCV" route="6to10" depart="246"  departLane="best" departSpeed="max"/>
    <vehicle id="232" type="typeHuman" route="8to7" depart="247"  departLane="best" departSpeed="max"/>
    <vehicle id="233" type="typeITSCV" route="7to6" depart="247"  departLane="best" departSpeed="max"/>
    <vehicle id="234" type="typeITSCV" route="6to8" depart="247"  departLane="best" departSpeed="max"/>
    <vehicle id="235" type="typeHuman" route="8to7" depart="248"  departLane="best" departSpeed="max"/>
    <vehicle id="236" type="typeITSCV" route="7to8" depart="248"  departLane="best" departSpeed="max"/>
    <vehicle id="237" type="typeITSCV" route="7to8" depart="249"  departLane="best" departSpeed="max"/>
    <vehicle id="238" type="typeITSCV" route="8to7" depart="250"  departLane="best" departSpeed="max"/>
    <vehicle id="239" type="typeITSCV" route="8to7" depart="251"  departLane="best" departSpeed="max"/>
    <vehicle id="240" type="typeITSCV" route="7to8" depart="251"  departLane="best" departSpeed="max"/>
    <vehicle id="241" type="typeITSCV" route="7to8" depart="252"  departLane="best" departSpeed="max"/>
    <vehicle id="242" type="typeHuman" route="6to8" depart="252"  departLane="best" departSpeed="max"/>
    <vehicle id="243" type="typeITSCV" route="7to10" depart="253"  departLane="best" departSpeed="max"/>
    <vehicle id="244" type="typeITSCV" route="8to7" depart="255"  departLane="best" departSpeed="max"/>
    <vehicle id="245" type="typeITSCV" route="7to8" depart="255"  departLane="best" departSpeed="max"/>
    <vehicle id="246" type="typeITSCV" route="6to10" depart="255"  departLane="best" departSpeed="max"/>
    <vehicle id="247" type="typeITSCV" route="7to8" depart="256"  departLane="best" departSpeed="max"/>
    <vehicle id="248" type="typeHuman" route="8to7" depart="258"  departLane="best" departSpeed="max"/>
    <vehicle id="249" type="typeITSCV" route="7to8" depart="258"  departLane="best" departSpeed="max"/>
    <vehicle id="250" type="typeITSCV" route="8to7" depart="260"  departLane="best" departSpeed="max"/>
    <vehicle id="251" type="typeITSCV" route="6to8" depart="260"  departLane="best" departSpeed="max"/>
    <vehicle id="252" type="typeITSCV" route="7to6" depart="261"  departLane="best" departSpeed="max"/>
    <vehicle id="253" type="typeHuman" route="7to8" depart="261"  departLane="best" departSpeed="max"/>
    <vehicle id="254" type="typeITSCV" route="6to10" depart="261"  departLane="best" departSpeed="max"/>
    <vehicle id="255" type="typeITSCV" route="6to7" depart="263"  departLane="best" departSpeed="max"/>
    <vehicle id="256" type="typeITSCV" route="6to8" depart="264"  departLane="best" departSpeed="max"/>
    <vehicle id="257" type="typeITSCV" route="7to10" depart="265"  departLane="best" departSpeed="max"/>
    <vehicle id="258" type="typeITSCV" route="6to10" depart="267"  departLane="best" departSpeed="max"/>
    <vehicle id="259" type="typeITSCV" route="8to6" depart="268"  departLane="best" departSpeed="max"/>
    <vehicle id="260" type="typeHuman" route="7to10" depart="268"  departLane="best" departSpeed="max"/>
    <vehicle id="261" type="typeHuman" route="7to10" depart="269"  departLane="best" departSpeed="max"/>
    <vehicle id="262" type="typeITSCV" route="6to7" depart="270"  departLane="best" departSpeed="max"/>
    <vehicle id="263" type="typeITSCV" route="7to8" depart="272"  departLane="best" departSpeed="max"/>
    <vehicle id="264" type="typeHuman" route="8to6" depart="273"  departLane="best" departSpeed="max"/>
    <vehicle id="265" type="typeITSCV" route="6to8" depart="274"  departLane="best" departSpeed="max"/>
    <vehicle id="266" type="typeHuman" route="10to8" depart="274"  departLane="best" departSpeed="max"/>
    <vehicle id="267" type="typeITSCV" route="10to6" depart="275"  departLane="best" departSpeed="max"/>
    <vehicle id="268" type="typeITSCV" route="7to6" depart="277"  departLane="best" departSpeed="max"/>
    <vehicle id="269" type="typeITSCV" route="8to7" depart="279"  departLane="best" departSpeed="max"/>
    <vehicle id="270" type="typeHuman" route="7to8" depart="279"  departLane="best" departSpeed="max"/>
    <vehicle id="271" type="typeITSCV" route="8to7" depart="281"  departLane="best" departSpeed="max"/>
    <vehicle id="272" type="typeHuman" route="6to8" depart="281"  departLane="best" departSpeed="max"/>
    <vehicle id="273" type="typeITSCV" route="8to6" depart="282"  departLane="best" departSpeed="max"/>
    <vehicle id="274" type="typeITSCV" route="8to7" depart="282"  departLane="best" departSpeed="max"/>
    <vehicle id="275" type="typeHuman" route="7to8" depart="282"  departLane="best" departSpeed="max"/>
    <vehicle id="276" type="typeITSCV" route="7to10" depart="283"  departLane="best" departSpeed="max"/>
    <vehicle id="277" type="typeITSCV" route="8to6" depart="284"  departLane="best" departSpeed="max"/>
    <vehicle id="278" type="typeITSCV" route="6to7" depart="284"  departLane="best" departSpeed="max"/>