<?xml version="1.0" encoding="UTF-8"?>
<routes xmlns:xsi="http://www.w3.org/2001/XMLSchema-instance" xsi:noNamespaceSchemaLocation="http://sumo.dlr.de/xsd/routes_file.xsd">
    <route id="0" edges="edge0 edge1 edge71 edge70 edge61 edge62 edge63 edge105 edge2 edge60 edge3116 edge137 edge3112 edge55 edge56 edge54 edge53 edge102 edge3028 edge39 edge38 edge40 edge69 edge27 edge26 edge28 edge35 edge36 edge3023 edge206 edge281 edge282 edge153 edge154 edge3265 edge118"/>
    <route id="1" edges="edge0 edge1 edge71 edge70 edge61 edge62 edge63 edge105 edge2 edge60 edge3116 edge137 edge3112 edge55 edge56 edge54 edge53 edge102 edge3028 edge39 edge38 edge40 edge69 edge27 edge26 edge28 edge35 edge36 edge3023 edge206 edge281 edge282 edge153 edge154 edge3265 edge252 edge119"/>
    <route id="2" edges="edge0 edge1 edge71 edge70 edge61 edge62 edge63 edge105 edge2 edge60 edge3116 edge137 edge3112 edge55 edge56 edge54 edge53 edge102 edge3028 edge39 edge38 edge40 edge69 edge27 edge26 edge28 edge35 edge36 edge3023 edge14 edge13 edge11 edge12"/>
    <route id="3" edges="edge0 edge1 edge71 edge70 edge61 edge62 edge63 edge105 edge2 edge60 edge3116 edge137 edge3112 edge55 edge56 edge54 edge53 edge102 edge3028 edge39 edge38 edge40 edge69 edge27 edge26 edge28 edge35 edge36 edge3023 edge206 edge281 edge282 edge153 edge154 edge155 edge156 edge120"/>
    <route id="4" edges="edge0 edge1 edge71 edge70 edge183 edge184 edge42 edge130 edge131 edge249 edge250 edge126 edge127"/>
    <route id="5" edges="edge0 edge1 edge71 edge70 edge61 edge62 edge63 edge105 edge2 edge60 edge3116 edge137 edge3112 edge55 edge56 edge54 edge53 edge102 edge3028 edge39 edge38 edge40 edge69 edge27 edge26 edge28 edge35 edge36 edge15 edge16"/>
    <route id="6" edges="edge0 edge1 edge71 edge70 edge61 edge62 edge63 edge105 edge2 edge60 edge3116 edge137 edge3112 edge55 edge56 edge54 edge53 edge102 edge3028 edge165 edge166 edge169"/>
    <route id="7" edges="edge0 edge1 edge71 edge70 edge61 edge62 edge63 edge105 edge2 edge60 edge3116 edge137 edge3112 edge55 edge56 edge54 edge53 edge102 edge3028 edge39 edge38 edge40 edge69 edge27 edge26 edge28 edge35 edge36 edge3023 edge206 edge207 edge199 edge212 edge213 edge242 edge197 edge143 edge144 edge145 edge146 edge147 edge148 edge149 edge150 edge151 edge278 edge237 edge179 edge180"/>
    <route id="8" edges="edge0 edge1 edge71 edge70 edge61 edge62 edge63 edge34 edge33 edge216 edge217"/>
    <route id="9" edges="edge0 edge1 edge71 edge70 edge61 edge62 edge63 edge105 edge2 edge60 edge3116 edge137 edge3112 edge55 edge56 edge54 edge53 edge102 edge3028 edge39 edge38 edge40 edge69 edge27 edge26 edge28 edge35 edge36 edge3023 edge206 edge207 edge199 edge212 edge213 edge242 edge197 edge143 edge144 edge145 edge146 edge147 edge148 edge24 edge25"/>
    <route id="10" edges="edge0 edge1 edge71 edge70 edge61 edge62 edge63 edge105 edge2 edge60 edge3116 edge137 edge3112 edge55 edge56 edge54 edge53 edge102 edge3028 edge39 edge38 edge40 edge69 edge27 edge26 edge28 edge35 edge36 edge3023 edge206 edge207 edge199 edge212 edge213 edge242 edge197 edge143 edge144 edge145 edge146 edge147 edge148 edge149 edge150 edge151 edge265 edge266 edge267"/>
    <route id="11" edges="edge0 edge1 edge71 edge70 edge61 edge62 edge63 edge105 edge2 edge60 edge3116 edge137 edge270 edge271"/>
    <route id="12" edges="edge0 edge1 edge71 edge70 edge183 edge184 edge185 edge186 edge189 edge190 edge191 edge192 edge3172 edge218 edge219 edge214 edge3173 edge109 edge294"/>
    <route id="13" edges="edge0 edge1 edge71 edge70 edge61 edge62 edge63 edge105 edge2 edge60 edge3116 edge137 edge3112 edge55 edge56 edge54 edge53 edge102 edge3028 edge39 edge38 edge40 edge69 edge27 edge26 edge28 edge35 edge36 edge3023 edge206 edge207 edge199 edge212 edge213 edge242 edge197 edge143 edge144 edge145 edge146 edge297 edge295 edge296 edge198 edge132 edge29 edge30"/>
    <route id="14" edges="edge0 edge1 edge71 edge70 edge61 edge62 edge63 edge105 edge2 edge60 edge3116 edge137 edge3112 edge55 edge56 edge54 edge53 edge102 edge3028 edge39 edge38 edge40 edge69 edge27 edge26 edge28 edge3025 edge3026 edge3027"/>
    <route id="15" edges="edge0 edge1 edge71 edge70 edge61 edge62 edge63 edge3117"/>
    <route id="16" edges="edge0 edge1 edge71 edge70 edge183 edge184 edge185 edge186 edge189 edge190 edge191 edge192 edge3172 edge218 edge219 edge214 edge3173 edge111 edge3178 edge3179"/>
    <route id="17" edges="edge0 edge1 edge71 edge70 edge183 edge184 edge185 edge186 edge189 edge190 edge191 edge192 edge3172 edge218 edge219 edge214 edge3173 edge111 edge3178 edge3260 edge3261 edge3262"/>
    <route id="18" edges="edge0 edge1 edge71 edge70 edge183 edge184 edge185 edge186 edge189 edge190 edge191 edge192 edge3172 edge218 edge219 edge214 edge3173 edge111 edge3178 edge3260 edge3261 edge3263"/>
    <route id="19" edges="edge0 edge1 edge71 edge70 edge61 edge62 edge63 edge105 edge2 edge60 edge3116 edge137 edge3112 edge55 edge56 edge54 edge53 edge102 edge3028 edge39 edge38 edge40 edge69 edge27 edge26 edge28 edge35 edge36 edge3023 edge206 edge281 edge282 edge153 edge154 edge3265 edge252 edge3350"/>
    <route id="20" edges="edge0 edge1 edge71 edge70 edge183 edge184 edge185 edge186 edge189 edge254 edge193 edge194 edge195 edge239 edge220 edge3352"/>
    <route id="21" edges="edge0 edge1 edge71 edge70 edge61 edge62 edge63 edge105 edge2 edge60 edge3116 edge137 edge3112 edge55 edge56 edge54 edge53 edge81 edge82 edge3356"/>
    <route id="22" edges="edge0 edge1 edge71 edge70 edge183 edge184 edge42 edge49 edge50"/>
    <route id="23" edges="edge0 edge1 edge71 edge70 edge183 edge184 edge185 edge186 edge189 edge254 edge193 edge194 edge195 edge64 edge51 edge52.0 edge52.22"/>
    <route id="24" edges="edge0 edge1 edge71 edge70 edge183 edge184 edge185 edge186 edge189 edge190 edge191 edge192 edge3172 edge106 edge67 edge68"/>
    <route id="25" edges="edge0 edge1 edge71 edge70 edge61 edge62 edge63 edge34 edge33 edge75 edge74"/>
    <route id="26" edges="edge0 edge1 edge71 edge70 edge183 edge184 edge185 edge186 edge189 edge190 edge191 edge192 edge3172 edge6 edge7 edge8"/>
    <route id="27" edges="edge0 edge1 edge71 edge70 edge61 edge62 edge63 edge105 edge2 edge60 edge59 edge58 edge57 edge5 edge4 edge79 edge80"/>
    <route id="28" edges="edge0 edge1 edge71 edge70 edge61 edge62 edge63 edge105 edge2 edge60 edge3116 edge137 edge3112 edge55 edge56 edge54 edge53 edge102 edge3028 edge39 edge38 edge40 edge69 edge27 edge26 edge28 edge35 edge36 edge3023 edge206 edge207 edge133 edge3020 edge96 edge37 edge300 edge299 edge18 edge17 edge83"/>
    <route id="29" edges="edge100 edge99 edge98 edge35 edge36 edge3023 edge206 edge281 edge282 edge153 edge154 edge3265 edge118"/>
    <route id="30" edges="edge100 edge99 edge98 edge35 edge36 edge3023 edge206 edge281 edge282 edge153 edge154 edge3265 edge252 edge119"/>
    <route id="31" edges="edge100 edge99 edge98 edge35 edge36 edge3023 edge14 edge13 edge11 edge12"/>
    <route id="32" edges="edge100 edge99 edge98 edge35 edge36 edge3023 edge206 edge281 edge282 edge153 edge154 edge155 edge156 edge120"/>
    <route id="33" edges="edge100 edge99 edge98 edge176 edge174 edge175 edge248 edge205 edge203 edge204 edge101 edge3029 edge226 edge227 edge228 edge229 edge103 edge232 edge233 edge135 edge3119 edge234 edge235 edge236 edge249 edge250 edge126 edge127"/>
    <route id="34" edges="edge100 edge99 edge98 edge35 edge36 edge15 edge16"/>
    <route id="35" edges="edge100 edge99 edge98 edge176 edge174 edge175 edge248 edge205 edge203 edge204 edge165 edge166 edge169"/>
    <route id="36" edges="edge100 edge99 edge98 edge35 edge36 edge3023 edge206 edge207 edge199 edge212 edge213 edge242 edge197 edge143 edge144 edge145 edge146 edge147 edge148 edge149 edge150 edge151 edge278 edge237 edge179 edge180"/>
    <route id="37" edges="edge100 edge99 edge98 edge176 edge174 edge175 edge248 edge205 edge203 edge204 edge101 edge3029 edge226 edge227 edge228 edge229 edge103 edge232 edge233 edge135 edge3119 edge34 edge33 edge216 edge217"/>
    <route id="38" edges="edge100 edge99 edge98 edge35 edge36 edge3023 edge206 edge207 edge199 edge212 edge213 edge242 edge197 edge143 edge144 edge145 edge146 edge147 edge148 edge24 edge25"/>
    <route id="39" edges="edge100 edge99 edge98 edge35 edge36 edge3023 edge206 edge207 edge199 edge212 edge213 edge242 edge197 edge143 edge144 edge145 edge146 edge147 edge148 edge149 edge150 edge151 edge265 edge266 edge267"/>
    <route id="40" edges="edge100 edge99 edge98 edge176 edge174 edge175 edge248 edge205 edge203 edge204 edge101 edge3029 edge226 edge227 edge228 edge229 edge286 edge269 edge182 edge105 edge2 edge60 edge3116 edge137 edge270 edge271"/>
    <route id="41" edges="edge100 edge99 edge98 edge176 edge174 edge175 edge248 edge205 edge203 edge204 edge101 edge3029 edge226 edge227 edge228 edge229 edge103 edge232 edge233 edge135 edge3119 edge234 edge235 edge236 edge183 edge184 edge185 edge186 edge189 edge190 edge191 edge192 edge3172 edge218 edge219 edge214 edge3173 edge109 edge294"/>
    <route id="42" edges="edge100 edge99 edge98 edge35 edge36 edge3023 edge206 edge207 edge199 edge212 edge213 edge242 edge197 edge143 edge144 edge145 edge146 edge297 edge295 edge296 edge198 edge132 edge29 edge30"/>
    <route id="43" edges="edge100 edge99 edge98 edge35 edge36 edge3023 edge206 edge281 edge282 edge153 edge154 edge3265 edge252 edge253 edge97 edge187 edge188 edge3025 edge3026 edge3027"/>
    <route id="44" edges="edge100 edge99 edge98 edge176 edge174 edge175 edge248 edge205 edge203 edge204 edge101 edge3029 edge226 edge227 edge228 edge229 edge103 edge232 edge233 edge135 edge3119 edge3117"/>
    <route id="45" edges="edge100 edge99 edge98 edge176 edge174 edge175 edge248 edge205 edge203 edge204 edge101 edge3029 edge226 edge227 edge228 edge229 edge103 edge232 edge233 edge135 edge3119 edge234 edge235 edge236 edge183 edge184 edge185 edge186 edge189 edge190 edge191 edge192 edge3172 edge218 edge219 edge214 edge3173 edge111 edge3178 edge3179"/>
    <route id="46" edges="edge100 edge99 edge98 edge176 edge174 edge175 edge248 edge205 edge203 edge204 edge101 edge3029 edge226 edge227 edge228 edge229 edge103 edge232 edge233 edge135 edge3119 edge234 edge235 edge236 edge183 edge184 edge185 edge186 edge189 edge190 edge191 edge192 edge3172 edge218 edge219 edge214 edge3173 edge111 edge3178 edge3260 edge3261 edge3262"/>
    <route id="47" edges="edge100 edge99 edge98 edge176 edge174 edge175 edge248 edge205 edge203 edge204 edge101 edge3029 edge226 edge227 edge228 edge229 edge103 edge232 edge233 edge135 edge3119 edge234 edge235 edge236 edge183 edge184 edge185 edge186 edge189 edge190 edge191 edge192 edge3172 edge218 edge219 edge214 edge3173 edge111 edge3178 edge3260 edge3261 edge3263"/>
    <route id="48" edges="edge100 edge99 edge98 edge35 edge36 edge3023 edge206 edge281 edge282 edge153 edge154 edge3265 edge252 edge3350"/>
    <route id="49" edges="edge100 edge99 edge98 edge176 edge174 edge175 edge248 edge205 edge203 edge204 edge101 edge3029 edge226 edge227 edge228 edge229 edge103 edge232 edge233 edge135 edge3119 edge234 edge235 edge236 edge183 edge184 edge185 edge186 edge189 edge254 edge193 edge194 edge195 edge239 edge220 edge3352"/>
    <route id="50" edges="edge100 edge99 edge98 edge176 edge174 edge175 edge279 edge280 edge3353 edge3354 edge3355 edge3356"/>
    <route id="51" edges="edge100 edge99 edge98 edge176 edge174 edge175 edge248 edge205 edge203 edge204 edge101 edge3029 edge226 edge227 edge228 edge229 edge103 edge232 edge233 edge135 edge3119 edge234 edge235 edge236 edge183 edge184 edge42 edge49 edge50"/>
    <route id="52" edges="edge100 edge99 edge98 edge176 edge174 edge175 edge248 edge205 edge203 edge204 edge101 edge3029 edge226 edge227 edge228 edge229 edge103 edge232 edge233 edge135 edge3119 edge234 edge235 edge236 edge183 edge184 edge185 edge186 edge189 edge254 edge193 edge194 edge195 edge64 edge51 edge52.0 edge52.22"/>
    <route id="53" edges="edge100 edge99 edge98 edge176 edge174 edge175 edge248 edge205 edge203 edge204 edge101 edge3029 edge226 edge227 edge228 edge229 edge103 edge232 edge233 edge135 edge3119 edge234 edge235 edge236 edge183 edge184 edge185 edge186 edge189 edge190 edge191 edge192 edge3172 edge106 edge67 edge68"/>
    <route id="54" edges="edge100 edge99 edge98 edge176 edge174 edge175 edge248 edge205 edge203 edge204 edge101 edge3029 edge226 edge227 edge228 edge229 edge103 edge232 edge233 edge135 edge3119 edge34 edge33 edge75 edge74"/>
    <route id="55" edges="edge100 edge99 edge98 edge176 edge174 edge175 edge248 edge205 edge203 edge204 edge101 edge3029 edge226 edge227 edge228 edge229 edge103 edge232 edge233 edge135 edge3119 edge234 edge235 edge236 edge183 edge184 edge185 edge186 edge189 edge190 edge191 edge192 edge3172 edge6 edge7 edge8"/>
    <route id="56" edges="edge100 edge99 edge98 edge176 edge174 edge175 edge248 edge205 edge203 edge204 edge101 edge3029 edge226 edge227 edge228 edge229 edge103 edge58 edge57 edge5 edge4 edge79 edge80"/>
    <route id="57" edges="edge100 edge99 edge98 edge35 edge36 edge3023 edge206 edge207 edge133 edge3020 edge96 edge37 edge300 edge299 edge18 edge17 edge83"/>
    <route id="58" edges="edge104 edge105 edge2 edge60 edge3116 edge137 edge3112 edge55 edge56 edge54 edge53 edge102 edge3028 edge39 edge38 edge40 edge69 edge27 edge26 edge28 edge35 edge36 edge3023 edge206 edge281 edge282 edge153 edge154 edge3265 edge118"/>
    <route id="59" edges="edge104 edge105 edge2 edge60 edge3116 edge137 edge3112 edge55 edge56 edge54 edge53 edge102 edge3028 edge39 edge38 edge40 edge69 edge27 edge26 edge28 edge35 edge36 edge3023 edge206 edge281 edge282 edge153 edge154 edge3265 edge252 edge119"/>
    <route id="60" edges="edge104 edge105 edge2 edge60 edge3116 edge137 edge3112 edge55 edge56 edge54 edge53 edge102 edge3028 edge39 edge38 edge40 edge69 edge27 edge26 edge28 edge35 edge36 edge3023 edge14 edge13 edge11 edge12"/>
    <route id="61" edges="edge104 edge105 edge2 edge60 edge3116 edge137 edge3112 edge55 edge56 edge54 edge53 edge102 edge3028 edge39 edge38 edge40 edge69 edge27 edge26 edge28 edge35 edge36 edge3023 edge206 edge281 edge282 edge153 edge154 edge155 edge156 edge120"/>
    <route id="62" edges="edge104 edge234 edge235 edge236 edge249 edge250 edge126 edge127"/>
    <route id="63" edges="edge104 edge105 edge2 edge60 edge3116 edge137 edge3112 edge55 edge56 edge54 edge53 edge102 edge3028 edge39 edge38 edge40 edge69 edge27 edge26 edge28 edge35 edge36 edge15 edge16"/>
    <route id="64" edges="edge104 edge105 edge2 edge60 edge3116 edge137 edge3112 edge55 edge56 edge54 edge53 edge102 edge3028 edge165 edge166 edge169"/>
    <route id="65" edges="edge104 edge105 edge2 edge60 edge3116 edge137 edge3112 edge55 edge56 edge54 edge53 edge102 edge3028 edge39 edge38 edge40 edge69 edge27 edge26 edge28 edge35 edge36 edge3023 edge206 edge207 edge199 edge212 edge213 edge242 edge197 edge143 edge144 edge145 edge146 edge147 edge148 edge149 edge150 edge151 edge278 edge237 edge179 edge180"/>
    <route id="66" edges="edge104 edge34 edge33 edge216 edge217"/>
    <route id="67" edges="edge104 edge105 edge2 edge60 edge3116 edge137 edge3112 edge55 edge56 edge54 edge53 edge102 edge3028 edge39 edge38 edge40 edge69 edge27 edge26 edge28 edge35 edge36 edge3023 edge206 edge207 edge199 edge212 edge213 edge242 edge197 edge143 edge144 edge145 edge146 edge147 edge148 edge24 edge25"/>
    <route id="68" edges="edge104 edge105 edge2 edge60 edge3116 edge137 edge3112 edge55 edge56 edge54 edge53 edge102 edge3028 edge39 edge38 edge40 edge69 edge27 edge26 edge28 edge35 edge36 edge3023 edge206 edge207 edge199 edge212 edge213 edge242 edge197 edge143 edge144 edge145 edge146 edge147 edge148 edge149 edge150 edge151 edge265 edge266 edge267"/>
    <route id="69" edges="edge104 edge105 edge2 edge60 edge3116 edge137 edge270 edge271"/>
    <route id="70" edges="edge104 edge234 edge235 edge236 edge183 edge184 edge185 edge186 edge189 edge190 edge191 edge192 edge3172 edge218 edge219 edge214 edge3173 edge109 edge294"/>
    <route id="71" edges="edge104 edge105 edge2 edge60 edge3116 edge137 edge3112 edge55 edge56 edge54 edge53 edge102 edge3028 edge39 edge38 edge40 edge69 edge27 edge26 edge28 edge35 edge36 edge3023 edge206 edge207 edge199 edge212 edge213 edge242 edge197 edge143 edge144 edge145 edge146 edge297 edge295 edge296 edge198 edge132 edge29 edge30"/>
    <route id="72" edges="edge104 edge105 edge2 edge60 edge3116 edge137 edge3112 edge55 edge56 edge54 edge53 edge102 edge3028 edge39 edge38 edge40 edge69 edge27 edge26 edge28 edge3025 edge3026 edge3027"/>
    <route id="73" edges="edge104 edge105 edge2 edge60 edge3116 edge137 edge3112 edge286 edge269 edge182 edge3117"/>
    <route id="74" edges="edge104 edge234 edge235 edge236 edge183 edge184 edge185 edge186 edge189 edge190 edge191 edge192 edge3172 edge218 edge219 edge214 edge3173 edge111 edge3178 edge3179"/>
    <route id="75" edges="edge104 edge234 edge235 edge236 edge183 edge184 edge185 edge186 edge189 edge190 edge191 edge192 edge3172 edge218 edge219 edge214 edge3173 edge111 edge3178 edge3260 edge3261 edge3262"/>
    <route id="76" edges="edge104 edge234 edge235 edge236 edge183 edge184 edge185 edge186 edge189 edge190 edge191 edge192 edge3172 edge218 edge219 edge214 edge3173 edge111 edge3178 edge3260 edge3261 edge3263"/>
    <route id="77" edges="edge104 edge105 edge2 edge60 edge3116 edge137 edge3112 edge55 edge56 edge54 edge53 edge102 edge3028 edge39 edge38 edge40 edge69 edge27 edge26 edge28 edge35 edge36 edge3023 edge206 edge281 edge282 edge153 edge154 edge3265 edge252 edge3350"/>
    <route id="78" edges="edge104 edge234 edge235 edge236 edge183 edge184 edge185 edge186 edge189 edge254 edge193 edge194 edge195 edge239 edge220 edge3352"/>
    <route id="79" edges="edge104 edge105 edge2 edge60 edge3116 edge137 edge3112 edge55 edge56 edge54 edge53 edge81 edge82 edge3356"/>
    <route id="80" edges="edge104 edge234 edge235 edge236 edge183 edge184 edge42 edge49 edge50"/>
    <route id="81" edges="edge104 edge234 edge235 edge236 edge183 edge184 edge185 edge186 edge189 edge254 edge193 edge194 edge195 edge64 edge51 edge52.0 edge52.22"/>
    <route id="82" edges="edge104 edge234 edge235 edge236 edge183 edge184 edge185 edge186 edge189 edge190 edge191 edge192 edge3172 edge106 edge67 edge68"/>
    <route id="83" edges="edge104 edge34 edge33 edge75 edge74"/>
    <route id="84" edges="edge104 edge234 edge235 edge236 edge183 edge184 edge185 edge186 edge189 edge190 edge191 edge192 edge3172 edge6 edge7 edge8"/>
    <route id="85" edges="edge104 edge105 edge2 edge60 edge59 edge58 edge57 edge5 edge4 edge79 edge80"/>
    <route id="86" edges="edge104 edge105 edge2 edge60 edge3116 edge137 edge3112 edge55 edge56 edge54 edge53 edge102 edge3028 edge39 edge38 edge40 edge69 edge27 edge26 edge28 edge35 edge36 edge3023 edge206 edge207 edge133 edge3020 edge96 edge37 edge300 edge299 edge18 edge17 edge83"/>
    <route id="87" edges="edge113 edge112 edge3177 edge108 edge41 edge45 edge46 edge107 edge277 edge258 edge259 edge196 edge128 edge129 edge130 edge131 edge61 edge62 edge63 edge105 edge2 edge60 edge3116 edge137 edge3112 edge55 edge56 edge54 edge53 edge102 edge3028 edge39 edge38 edge40 edge69 edge27 edge26 edge28 edge35 edge36 edge3023 edge206 edge281 edge282 edge153 edge154 edge3265 edge118"/>
    <route id="88" edges="edge113 edge112 edge3177 edge108 edge41 edge45 edge46 edge107 edge277 edge258 edge259 edge196 edge128 edge129 edge130 edge131 edge61 edge62 edge63 edge105 edge2 edge60 edge3116 edge137 edge3112 edge55 edge56 edge54 edge53 edge102 edge3028 edge39 edge38 edge40 edge69 edge27 edge26 edge28 edge35 edge36 edge3023 edge206 edge281 edge282 edge153 edge154 edge3265 edge252 edge119"/>
    <route id="89" edges="edge113 edge112 edge3177 edge108 edge41 edge45 edge46 edge107 edge277 edge258 edge259 edge196 edge128 edge129 edge130 edge131 edge61 edge62 edge63 edge105 edge2 edge60 edge3116 edge137 edge3112 edge55 edge56 edge54 edge53 edge102 edge3028 edge39 edge38 edge40 edge69 edge27 edge26 edge28 edge35 edge36 edge3023 edge14 edge13 edge11 edge12"/>
    <route id="90" edges="edge113 edge112 edge3177 edge108 edge41 edge45 edge46 edge107 edge277 edge258 edge259 edge196 edge128 edge129 edge130 edge131 edge61 edge62 edge63 edge105 edge2 edge60 edge3116 edge137 edge3112 edge55 edge56 edge54 edge53 edge102 edge3028 edge39 edge38 edge40 edge69 edge27 edge26 edge28 edge35 edge36 edge3023 edge206 edge281 edge282 edge153 edge154 edge155 edge156 edge120"/>
    <route id="91" edges="edge113 edge112 edge3177 edge108 edge41 edge45 edge46 edge107 edge277 edge258 edge259 edge196 edge128 edge129 edge130 edge131 edge249 edge250 edge126 edge127"/>
    <route id="92" edges="edge113 edge112 edge3177 edge108 edge41 edge45 edge46 edge107 edge277 edge258 edge259 edge196 edge128 edge129 edge130 edge131 edge61 edge62 edge63 edge105 edge2 edge60 edge3116 edge137 edge3112 edge55 edge56 edge54 edge53 edge102 edge3028 edge39 edge38 edge40 edge69 edge27 edge26 edge28 edge35 edge36 edge15 edge16"/>
    <route id="93" edges="edge113 edge112 edge3177 edge108 edge41 edge45 edge46 edge107 edge277 edge258 edge259 edge196 edge128 edge129 edge130 edge131 edge61 edge62 edge63 edge105 edge2 edge60 edge3116 edge137 edge3112 edge55 edge56 edge54 edge53 edge102 edge3028 edge165 edge166 edge169"/>
    <route id="94" edges="edge113 edge112 edge3177 edge108 edge41 edge45 edge46 edge107 edge277 edge258 edge259 edge196 edge128 edge129 edge130 edge131 edge61 edge62 edge63 edge105 edge2 edge60 edge3116 edge137 edge3112 edge55 edge56 edge54 edge53 edge102 edge3028 edge39 edge38 edge40 edge69 edge27 edge26 edge28 edge35 edge36 edge3023 edge206 edge207 edge199 edge212 edge213 edge242 edge197 edge143 edge144 edge145 edge146 edge147 edge148 edge149 edge150 edge151 edge278 edge237 edge179 edge180"/>
    <route id="95" edges="edge113 edge112 edge3177 edge108 edge41 edge45 edge46 edge107 edge277 edge258 edge259 edge196 edge128 edge129 edge130 edge131 edge61 edge62 edge63 edge34 edge33 edge216 edge217"/>
    <route id="96" edges="edge113 edge112 edge3177 edge108 edge41 edge45 edge46 edge107 edge277 edge258 edge259 edge196 edge128 edge129 edge130 edge131 edge61 edge62 edge63 edge105 edge2 edge60 edge3116 edge137 edge3112 edge55 edge56 edge54 edge53 edge102 edge3028 edge39 edge38 edge40 edge69 edge27 edge26 edge28 edge35 edge36 edge3023 edge206 edge207 edge199 edge212 edge213 edge242 edge197 edge143 edge144 edge145 edge146 edge147 edge148 edge24 edge25"/>
    <route id="97" edges="edge113 edge112 edge3177 edge108 edge41 edge45 edge46 edge107 edge277 edge258 edge259 edge196 edge128 edge129 edge130 edge131 edge61 edge62 edge63 edge105 edge2 edge60 edge3116 edge137 edge3112 edge55 edge56 edge54 edge53 edge102 edge3028 edge39 edge38 edge40 edge69 edge27 edge26 edge28 edge35 edge36 edge3023 edge206 edge207 edge199 edge212 edge213 edge242 edge197 edge143 edge144 edge145 edge146 edge147 edge148 edge149 edge150 edge151 edge265 edge266 edge267"/>
    <route id="98" edges="edge113 edge112 edge3177 edge108 edge41 edge45 edge46 edge107 edge277 edge258 edge259 edge196 edge128 edge129 edge130 edge131 edge61 edge62 edge63 edge105 edge2 edge60 edge3116 edge137 edge270 edge271"/>
    <route id="99" edges="edge113 edge112 edge3177 edge109 edge294"/>
    <route id="100" edges="edge113 edge112 edge3177 edge108 edge41 edge45 edge46 edge107 edge277 edge258 edge259 edge196 edge128 edge129 edge130 edge131 edge61 edge62 edge63 edge105 edge2 edge60 edge3116 edge137 edge3112 edge55 edge56 edge54 edge53 edge102 edge3028 edge39 edge38 edge40 edge69 edge27 edge26 edge28 edge35 edge36 edge3023 edge206 edge207 edge199 edge212 edge213 edge242 edge197 edge143 edge144 edge145 edge146 edge297 edge295 edge296 edge198 edge132 edge29 edge30"/>
    <route id="101" edges="edge113 edge112 edge3177 edge108 edge41 edge45 edge46 edge107 edge277 edge258 edge259 edge196 edge128 edge129 edge130 edge131 edge61 edge62 edge63 edge105 edge2 edge60 edge3116 edge137 edge3112 edge55 edge56 edge54 edge53 edge102 edge3028 edge39 edge38 edge40 edge69 edge27 edge26 edge28 edge3025 edge3026 edge3027"/>
    <route id="102" edges="edge113 edge112 edge3177 edge108 edge41 edge45 edge46 edge107 edge277 edge258 edge259 edge196 edge128 edge129 edge130 edge131 edge61 edge62 edge63 edge3117"/>
    <route id="103" edges="edge113 edge112 edge3177 edge108 edge41 edge45 edge46 edge107 edge277 edge258 edge259 edge196 edge244 edge189 edge190 edge191 edge192 edge3172 edge218 edge219 edge214 edge3173 edge111 edge3178 edge3179"/>
    <route id="104" edges="edge113 edge3260 edge3261 edge3262"/>
    <route id="105" edges="edge113 edge3260 edge3261 edge3263"/>
    <route id="106" edges="edge113 edge112 edge3177 edge108 edge41 edge45 edge46 edge107 edge277 edge258 edge259 edge196 edge128 edge129 edge130 edge131 edge61 edge62 edge63 edge105 edge2 edge60 edge3116 edge137 edge3112 edge55 edge56 edge54 edge53 edge102 edge3028 edge39 edge38 edge40 edge69 edge27 edge26 edge28 edge35 edge36 edge3023 edge206 edge281 edge282 edge153 edge154 edge3265 edge252 edge3350"/>
    <route id="107" edges="edge113 edge112 edge3177 edge110 edge48 edge3352"/>
    <route id="108" edges="edge113 edge112 edge3177 edge108 edge41 edge45 edge46 edge107 edge277 edge258 edge259 edge196 edge128 edge129 edge130 edge131 edge61 edge62 edge63 edge105 edge2 edge60 edge3116 edge137 edge3112 edge55 edge56 edge54 edge53 edge81 edge82 edge3356"/>
    <route id="109" edges="edge113 edge112 edge3177 edge108 edge41 edge45 edge46 edge107 edge277 edge258 edge259 edge196 edge128 edge129 edge49 edge50"/>
    <route id="110" edges="edge113 edge112 edge3177 edge110 edge48 edge47 edge65 edge64 edge51 edge52.0 edge52.22"/>
    <route id="111" edges="edge113 edge112 edge3177 edge108 edge41 edge45 edge46 edge106 edge67 edge68"/>
    <route id="112" edges="edge113 edge112 edge3177 edge108 edge41 edge45 edge46 edge107 edge277 edge258 edge259 edge196 edge128 edge129 edge130 edge131 edge61 edge62 edge63 edge34 edge33 edge75 edge74"/>
    <route id="113" edges="edge113 edge112 edge3177 edge108 edge41 edge45 edge46 edge6 edge7 edge8"/>
    <route id="114" edges="edge113 edge112 edge3177 edge108 edge41 edge45 edge46 edge107 edge277 edge258 edge259 edge196 edge128 edge129 edge130 edge131 edge61 edge62 edge63 edge105 edge2 edge60 edge59 edge58 edge57 edge5 edge4 edge79 edge80"/>
    <route id="115" edges="edge113 edge112 edge3177 edge108 edge41 edge45 edge46 edge107 edge277 edge258 edge259 edge196 edge128 edge129 edge130 edge131 edge61 edge62 edge63 edge105 edge2 edge60 edge3116 edge137 edge3112 edge55 edge56 edge54 edge53 edge102 edge3028 edge39 edge38 edge40 edge69 edge27 edge26 edge28 edge35 edge36 edge3023 edge206 edge207 edge133 edge3020 edge96 edge37 edge300 edge299 edge18 edge17 edge83"/>
    <route id="116" edges="edge116 edge115 edge114 edge112 edge3177 edge108 edge41 edge45 edge46 edge107 edge277 edge258 edge259 edge196 edge128 edge129 edge130 edge131 edge61 edge62 edge63 edge105 edge2 edge60 edge3116 edge137 edge3112 edge55 edge56 edge54 edge53 edge102 edge3028 edge39 edge38 edge40 edge69 edge27 edge26 edge28 edge35 edge36 edge3023 edge206 edge281 edge282 edge153 edge154 edge3265 edge118"/>
    <route id="117" edges="edge116 edge115 edge114 edge112 edge3177 edge108 edge41 edge45 edge46 edge107 edge277 edge258 edge259 edge196 edge128 edge129 edge130 edge131 edge61 edge62 edge63 edge105 edge2 edge60 edge3116 edge137 edge3112 edge55 edge56 edge54 edge53 edge102 edge3028 edge39 edge38 edge40 edge69 edge27 edge26 edge28 edge35 edge36 edge3023 edge206 edge281 edge282 edge153 edge154 edge3265 edge252 edge119"/>
    <route id="118" edges="edge116 edge115 edge114 edge112 edge3177 edge108 edge41 edge45 edge46 edge107 edge277 edge258 edge259 edge196 edge128 edge129 edge130 edge131 edge61 edge62 edge63 edge105 edge2 edge60 edge3116 edge137 edge3112 edge55 edge56 edge54 edge53 edge102 edge3028 edge39 edge38 edge40 edge69 edge27 edge26 edge28 edge35 edge36 edge3023 edge14 edge13 edge11 edge12"/>
    <route id="119" edges="edge116 edge115 edge114 edge112 edge3177 edge108 edge41 edge45 edge46 edge107 edge277 edge258 edge259 edge196 edge128 edge129 edge130 edge131 edge61 edge62 edge63 edge105 edge2 edge60 edge3116 edge137 edge3112 edge55 edge56 edge54 edge53 edge102 edge3028 edge39 edge38 edge40 edge69 edge27 edge26 edge28 edge35 edge36 edge3023 edge206 edge281 edge282 edge153 edge154 edge155 edge156 edge120"/>
    <route id="120" edges="edge116 edge115 edge114 edge112 edge3177 edge108 edge41 edge45 edge46 edge107 edge277 edge258 edge259 edge196 edge128 edge129 edge130 edge131 edge249 edge250 edge126 edge127"/>
    <route id="121" edges="edge116 edge115 edge114 edge112 edge3177 edge108 edge41 edge45 edge46 edge107 edge277 edge258 edge259 edge196 edge128 edge129 edge130 edge131 edge61 edge62 edge63 edge105 edge2 edge60 edge3116 edge137 edge3112 edge55 edge56 edge54 edge53 edge102 edge3028 edge39 edge38 edge40 edge69 edge27 edge26 edge28 edge35 edge36 edge15 edge16"/>
    <route id="122" edges="edge116 edge115 edge114 edge112 edge3177 edge108 edge41 edge45 edge46 edge107 edge277 edge258 edge259 edge196 edge128 edge129 edge130 edge131 edge61 edge62 edge63 edge105 edge2 edge60 edge3116 edge137 edge3112 edge55 edge56 edge54 edge53 edge102 edge3028 edge165 edge166 edge169"/>
    <route id="123" edges="edge116 edge115 edge114 edge112 edge3177 edge108 edge41 edge45 edge46 edge107 edge277 edge258 edge259 edge196 edge128 edge129 edge130 edge131 edge61 edge62 edge63 edge105 edge2 edge60 edge3116 edge137 edge3112 edge55 edge56 edge54 edge53 edge102 edge3028 edge39 edge38 edge40 edge69 edge27 edge26 edge28 edge35 edge36 edge3023 edge206 edge207 edge199 edge212 edge213 edge242 edge197 edge143 edge144 edge145 edge146 edge147 edge148 edge149 edge150 edge151 edge278 edge237 edge179 edge180"/>
    <route id="124" edges="edge116 edge115 edge114 edge112 edge3177 edge108 edge41 edge45 edge46 edge107 edge277 edge258 edge259 edge196 edge128 edge129 edge130 edge131 edge61 edge62 edge63 edge34 edge33 edge216 edge217"/>