<additional>
	<inductionLoop id="0" lane="1:0_0" pos="-6" freq="30" file="loops.out"/>
	<inductionLoop id="1" lane="1:0_0" pos="-18" freq="30" file="loops.out"/>
	<inductionLoop id="2" lane="2:0_0" pos="-6" freq="30" file="loops.out"/>
	<inductionLoop id="3" lane="2:0_0" pos="-18" freq="30" file="loops.out"/>
	<inductionLoop id="4" lane="3:0_0" pos="-6" freq="30" file="loops.out"/>
	<inductionLoop id="5" lane="3:0_0" pos="-18" freq="30" file="loops.out"/>
	<inductionLoop id="6" lane="4:0_0" pos="-6" freq="30" file="loops.out"/>
	<inductionLoop id="7" lane="4:0_0" pos="-18" freq="30" file="loops.out"/>
</additional>
