<routes>
    <vType id="typeHuman" accel="2.6" decel="4.5" sigma="0.5" length="5" minGap="2.5" maxSpeed="25" guiShape="passenger" color="1,1,0">
    </vType>

    <vType id="typeITSCV" accel="2.6" decel="4.5" sigma="0.5" length="5" minGap="2.5" maxSpeed="25" guiShape="passenger" color="1,0,0">
        <carFollowing-Krauss tau="1.0"/>
    </vType>

    <route id="eastSouth" edges="2:0 0:1 1:5 5:6" />
    <route id="eastWest" edges="2:0 0:1 1:3 3:7" />
    <route id="westSouth" edges="7:3 3:1 1:5 5:6" />
    <route id="westEast" edges="7:3 3:1 1:0 0:2" />
    <route id="southEast" edges="6:5 5:1 1:0 0:2" />
    <route id="southWest" edges="6:5 5:1 1:3 3:7" />
    
    <vehicle id="0" type="typeITSCV" route="westEast" depart="0"  departLane="best" departSpeed="max"/>
    <vehicle id="1" type="typeHuman" route="eastWest" depart="2"  departLane="best" departSpeed="max"/>
    <vehicle id="2" type="typeHuman" route="westSouth" depart="2"  departLane="best" departSpeed="max"/>
    <vehicle id="3" type="typeITSCV" route="westEast" depart="2"  departLane="best" departSpeed="max"/>
    <vehicle id="4" type="typeITSCV" route="eastWest" depart="3"  departLane="best" departSpeed="max"/>
    <vehicle id="5" type="typeITSCV" route="eastWest" depart="4"  departLane="best" departSpeed="max"/>
    <vehicle id="6" type="typeITSCV" route="westEast" depart="4"  departLane="best" departSpeed="max"/>
    <vehicle id="7" type="typeITSCV" route="eastSouth" depart="5"  departLane="best" departSpeed="max"/>
    <vehicle id="8" type="typeITSCV" route="westEast" depart="5"  departLane="best" departSpeed="max"/>
    <vehicle id="9" type="typeHuman" route="eastSouth" depart="6"  departLane="best" departSpeed="max"/>
    <vehicle id="10" type="typeITSCV" route="westEast" depart="7"  departLane="best" departSpeed="max"/>
    <vehicle id="11" type="typeHuman" route="eastWest" depart="8"  departLane="best" departSpeed="max"/>
    <vehicle id="12" type="typeITSCV" route="eastSouth" depart="10"  departLane="best" departSpeed="max"/>
    <vehicle id="13" type="typeITSCV" route="eastWest" depart="10"  departLane="best" departSpeed="max"/>
    <vehicle id="14" type="typeITSCV" route="westSouth" depart="10"  departLane="best" departSpeed="max"/>
    <vehicle id="15" type="typeITSCV" route="westEast" depart="10"  departLane="best" departSpeed="max"/>
    <vehicle id="16" type="typeITSCV" route="westSouth" depart="12"  departLane="best" departSpeed="max"/>
    <vehicle id="17" type="typeITSCV" route="eastSouth" depart="13"  departLane="best" departSpeed="max"/>
    <vehicle id="18" type="typeITSCV" route="southWest" depart="13"  departLane="best" departSpeed="max"/>
    <vehicle id="19" type="typeITSCV" route="westEast" depart="14"  departLane="best" departSpeed="max"/>
    <vehicle id="20" type="typeITSCV" route="westEast" depart="15"  departLane="best" departSpeed="max"/>
    <vehicle id="21" type="typeHuman" route="westEast" depart="17"  departLane="best" departSpeed="max"/>
    <vehicle id="22" type="typeITSCV" route="eastWest" depart="19"  departLane="best" departSpeed="max"/>
    <vehicle id="23" type="typeHuman" route="westEast" depart="20"  departLane="best" departSpeed="max"/>
    <vehicle id="24" type="typeHuman" route="eastWest" depart="22"  departLane="best" departSpeed="max"/>
    <vehicle id="25" type="typeITSCV" route="westEast" depart="23"  departLane="best" departSpeed="max"/>
    <vehicle id="26" type="typeITSCV" route="eastWest" depart="24"  departLane="best" departSpeed="max"/>
    <vehicle id="27" type="typeITSCV" route="eastWest" depart="25"  departLane="best" departSpeed="max"/>
    <vehicle id="28" type="typeITSCV" route="westEast" depart="25"  departLane="best" departSpeed="max"/>
    <vehicle id="29" type="typeITSCV" route="westSouth" depart="26"  departLane="best" departSpeed="max"/>
    <vehicle id="30" type="typeITSCV" route="westEast" depart="26"  departLane="best" departSpeed="max"/>
    <vehicle id="31" type="typeITSCV" route="westEast" depart="27"  departLane="best" departSpeed="max"/>
    <vehicle id="32" type="typeHuman" route="eastWest" depart="28"  departLane="best" departSpeed="max"/>
    <vehicle id="33" type="typeITSCV" route="westEast" depart="28"  departLane="best" departSpeed="max"/>
    <vehicle id="34" type="typeITSCV" route="eastWest" depart="30"  departLane="best" departSpeed="max"/>
    <vehicle id="35" type="typeITSCV" route="westEast" depart="30"  departLane="best" departSpeed="max"/>
    <vehicle id="36" type="typeHuman" route="eastWest" depart="31"  departLane="best" departSpeed="max"/>
    <vehicle id="37" type="typeITSCV" route="westEast" depart="32"  departLane="best" departSpeed="max"/>
    <vehicle id="38" type="typeITSCV" route="eastWest" depart="33"  departLane="best" departSpeed="max"/>
    <vehicle id="39" type="typeITSCV" route="westEast" depart="33"  departLane="best" departSpeed="max"/>
    <vehicle id="40" type="typeITSCV" route="eastWest" depart="34"  departLane="best" departSpeed="max"/>
    <vehicle id="41" type="typeHuman" route="southWest" depart="34"  departLane="best" departSpeed="max"/>
    <vehicle id="42" type="typeITSCV" route="southEast" depart="36"  departLane="best" departSpeed="max"/>
    <vehicle id="43" type="typeITSCV" route="southWest" depart="36"  departLane="best" departSpeed="max"/>
    <vehicle id="44" type="typeITSCV" route="westEast" depart="37"  departLane="best" departSpeed="max"/>
    <vehicle id="45" type="typeITSCV" route="eastWest" depart="38"  departLane="best" departSpeed="max"/>
    <vehicle id="46" type="typeITSCV" route="westEast" depart="38"  departLane="best" departSpeed="max"/>
    <vehicle id="47" type="typeITSCV" route="westEast" depart="41"  departLane="best" departSpeed="max"/>
    <vehicle id="48" type="typeITSCV" route="eastWest" depart="42"  departLane="best" departSpeed="max"/>
    <vehicle id="49" type="typeITSCV" route="westEast" depart="42"  departLane="best" departSpeed="max"/>
    <vehicle id="50" type="typeITSCV" route="southEast" depart="42"  departLane="best" departSpeed="max"/>
    <vehicle id="51" type="typeITSCV" route="eastSouth" depart="44"  departLane="best" departSpeed="max"/>
    <vehicle id="52" type="typeHuman" route="westEast" depart="44"  departLane="best" departSpeed="max"/>
    <vehicle id="53" type="typeITSCV" route="eastWest" depart="45"  departLane="best" departSpeed="max"/>
    <vehicle id="54" type="typeITSCV" route="eastWest" depart="46"  departLane="best" departSpeed="max"/>
    <vehicle id="55" type="typeITSCV" route="southWest" depart="46"  departLane="best" departSpeed="max"/>
    <vehicle id="56" type="typeITSCV" route="westEast" depart="48"  departLane="best" departSpeed="max"/>
    <vehicle id="57" type="typeITSCV" route="eastWest" depart="49"  departLane="best" departSpeed="max"/>
    <vehicle id="58" type="typeITSCV" route="eastWest" depart="50"  departLane="best" departSpeed="max"/>
    <vehicle id="59" type="typeITSCV" route="westEast" depart="51"  departLane="best" departSpeed="max"/>
    <vehicle id="60" type="typeITSCV" route="eastWest" depart="52"  departLane="best" departSpeed="max"/>
    <vehicle id="61" type="typeITSCV" route="westEast" depart="52"  departLane="best" departSpeed="max"/>
    <vehicle id="62" type="typeITSCV" route="eastWest" depart="53"  departLane="best" departSpeed="max"/>
    <vehicle id="63" type="typeITSCV" route="westEast" depart="53"  departLane="best" departSpeed="max"/>
    <vehicle id="64" type="typeITSCV" route="eastWest" depart="54"  departLane="best" departSpeed="max"/>
    <vehicle id="65" type="typeHuman" route="eastWest" depart="55"  departLane="best" departSpeed="max"/>
    <vehicle id="66" type="typeITSCV" route="westEast" depart="55"  departLane="best" departSpeed="max"/>
    <vehicle id="67" type="typeITSCV" route="westEast" depart="57"  departLane="best" departSpeed="max"/>
    <vehicle id="68" type="typeITSCV" route="westEast" depart="58"  departLane="best" departSpeed="max"/>
    <vehicle id="69" type="typeHuman" route="southEast" depart="58"  departLane="best" departSpeed="max"/>
    <vehicle id="70" type="typeHuman" route="westEast" depart="59"  departLane="best" departSpeed="max"/>
    <vehicle id="71" type="typeITSCV" route="eastWest" depart="60"  departLane="best" departSpeed="max"/>
    <vehicle id="72" type="typeITSCV" route="westSouth" depart="60"  departLane="best" departSpeed="max"/>
    <vehicle id="73" type="typeITSCV" route="westEast" depart="60"  departLane="best" departSpeed="max"/>
    <vehicle id="74" type="typeITSCV" route="eastWest" depart="64"  departLane="best" departSpeed="max"/>
    <vehicle id="75" type="typeITSCV" route="eastWest" depart="65"  departLane="best" departSpeed="max"/>
    <vehicle id="76" type="typeITSCV" route="westEast" depart="65"  departLane="best" departSpeed="max"/>
    <vehicle id="77" type="typeHuman" route="westSouth" depart="67"  departLane="best" departSpeed="max"/>
    <vehicle id="78" type="typeHuman" route="eastWest" depart="68"  departLane="best" departSpeed="max"/>
    <vehicle id="79" type="typeITSCV" route="westEast" depart="69"  departLane="best" departSpeed="max"/>
    <vehicle id="80" type="typeHuman" route="southWest" depart="69"  departLane="best" departSpeed="max"/>
    <vehicle id="81" type="typeITSCV" route="westEast" depart="71"  departLane="best" departSpeed="max"/>
    <vehicle id="82" type="typeITSCV" route="eastWest" depart="73"  departLane="best" departSpeed="max"/>
    <vehicle id="83" type="typeITSCV" route="westSouth" depart="73"  departLane="best" departSpeed="max"/>
    <vehicle id="84" type="typeITSCV" route="westEast" depart="73"  departLane="best" departSpeed="max"/>
    <vehicle id="85" type="typeITSCV" route="southEast" depart="75"  departLane="best" departSpeed="max"/>
    <vehicle id="86" type="typeHuman" route="westEast" depart="76"  departLane="best" departSpeed="max"/>
    <vehicle id="87" type="typeITSCV" route="southEast" depart="76"  departLane="best" departSpeed="max"/>
    <vehicle id="88" type="typeHuman" route="eastWest" depart="78"  departLane="best" departSpeed="max"/>
    <vehicle id="89" type="typeITSCV" route="eastWest" depart="79"  departLane="best" departSpeed="max"/>
    <vehicle id="90" type="typeHuman" route="eastWest" depart="80"  departLane="best" departSpeed="max"/>
    <vehicle id="91" type="typeITSCV" route="eastWest" depart="81"  departLane="best" departSpeed="max"/>
    <vehicle id="92" type="typeITSCV" route="westEast" depart="81"  departLane="best" departSpeed="max"/>
    <vehicle id="93" type="typeHuman" route="eastWest" depart="82"  departLane="best" departSpeed="max"/>
    <vehicle id="94" type="typeITSCV" route="eastWest" depart="84"  departLane="best" departSpeed="max"/>
    <vehicle id="95" type="typeITSCV" route="westEast" depart="84"  departLane="best" departSpeed="max"/>
    <vehicle id="96" type="typeITSCV" route="eastWest" depart="85"  departLane="best" departSpeed="max"/>
    <vehicle id="97" type="typeHuman" route="eastWest" depart="87"  departLane="best" departSpeed="max"/>
    <vehicle id="98" type="typeITSCV" route="westEast" depart="87"  departLane="best" departSpeed="max"/>
    <vehicle id="99" type="typeHuman" route="westEast" depart="88"  departLane="best" departSpeed="max"/>
    <vehicle id="100" type="typeHuman" route="westEast" depart="89"  departLane="best" departSpeed="max"/>
    <vehicle id="101" type="typeHuman" route="southEast" depart="89"  departLane="best" departSpeed="max"/>
    <vehicle id="102" type="typeITSCV" route="eastWest" depart="90"  departLane="best" departSpeed="max"/>
    <vehicle id="103" type="typeHuman" route="eastWest" depart="91"  departLane="best" departSpeed="max"/>
    <vehicle id="104" type="typeITSCV" route="westEast" depart="91"  departLane="best" departSpeed="max"/>
    <vehicle id="105" type="typeITSCV" route="eastSouth" depart="92"  departLane="best" departSpeed="max"/>
    <vehicle id="106" type="typeITSCV" route="southWest" depart="95"  departLane="best" departSpeed="max"/>
    <vehicle id="107" type="typeITSCV" route="eastSouth" depart="96"  departLane="best" departSpeed="max"/>
    <vehicle id="108" type="typeHuman" route="westEast" depart="97"  departLane="best" departSpeed="max"/>
    <vehicle id="109" type="typeITSCV" route="westEast" depart="98"  departLane="best" departSpeed="max"/>
    <vehicle id="110" type="typeHuman" route="southWest" depart="98"  departLane="best" departSpeed="max"/>
    <vehicle id="111" type="typeITSCV" route="eastWest" depart="99"  departLane="best" departSpeed="max"/>
    <vehicle id="112" type="typeITSCV" route="westEast" depart="99"  departLane="best" departSpeed="max"/>
    <vehicle id="113" type="typeITSCV" route="southEast" depart="99"  departLane="best" departSpeed="max"/>
    <vehicle id="114" type="typeITSCV" route="eastWest" depart="100"  departLane="best" departSpeed="max"/>
    <vehicle id="115" type="typeITSCV" route="westEast" depart="100"  departLane="best" departSpeed="max"/>
    <vehicle id="116" type="typeITSCV" route="eastWest" depart="101"  departLane="best" departSpeed="max"/>
    <vehicle id="117" type="typeITSCV" route="eastWest" depart="102"  departLane="best" departSpeed="max"/>
    <vehicle id="118" type="typeITSCV" route="westSouth" depart="103"  departLane="best" departSpeed="max"/>
    <vehicle id="119" type="typeHuman" route="eastSouth" depart="104"  departLane="best" departSpeed="max"/>
    <vehicle id="120" type="typeITSCV" route="eastWest" depart="104"  departLane="best" departSpeed="max"/>
    <vehicle id="121" type="typeITSCV" route="westEast" depart="104"  departLane="best" departSpeed="max"/>
    <vehicle id="122" type="typeITSCV" route="eastWest" depart="105"  departLane="best" departSpeed="max"/>
    <vehicle id="123" type="typeITSCV" route="westSouth" depart="105"  departLane="best" departSpeed="max"/>
    <vehicle id="124" type="typeHuman" route="westEast" depart="105"  departLane="best" departSpeed="max"/>
    <vehicle id="125" type="typeITSCV" route="eastWest" depart="106"  departLane="best" departSpeed="max"/>
    <vehicle id="126" type="typeHuman" route="westEast" depart="106"  departLane="best" departSpeed="max"/>
    <vehicle id="127" type="typeHuman" route="southEast" depart="106"  departLane="best" departSpeed="max"/>
    <vehicle id="128" type="typeHuman" route="eastWest" depart="107"  departLane="best" departSpeed="max"/>
    <vehicle id="129" type="typeHuman" route="westEast" depart="109"  departLane="best" departSpeed="max"/>
    <vehicle id="130" type="typeITSCV" route="westSouth" depart="110"  departLane="best" departSpeed="max"/>
    <vehicle id="131" type="typeITSCV" route="westEast" depart="110"  departLane="best" departSpeed="max"/>
    <vehicle id="132" type="typeITSCV" route="eastWest" depart="111"  departLane="best" departSpeed="max"/>
    <vehicle id="133" type="typeITSCV" route="westEast" depart="111"  departLane="best" departSpeed="max"/>
    <vehicle id="134" type="typeHuman" route="eastSouth" depart="113"  departLane="best" departSpeed="max"/>
    <vehicle id="135" type="typeHuman" route="eastWest" depart="113"  departLane="best" departSpeed="max"/>
    <vehicle id="136" type="typeHuman" route="westEast" depart="113"  departLane="best" departSpeed="max"/>
    <vehicle id="137" type="typeITSCV" route="eastWest" depart="114"  departLane="best" departSpeed="max"/>
    <vehicle id="138" type="typeITSCV" route="westEast" depart="114"  departLane="best" departSpeed="max"/>
    <vehicle id="139" type="typeHuman" route="westEast" depart="115"  departLane="best" departSpeed="max"/>
    <vehicle id="140" type="typeHuman" route="southEast" depart="115"  departLane="best" departSpeed="max"/>
    <vehicle id="141" type="typeITSCV" route="westSouth" depart="116"  departLane="best" departSpeed="max"/>
    <vehicle id="142" type="typeHuman" route="eastSouth" depart="117"  departLane="best" departSpeed="max"/>
    <vehicle id="143" type="typeITSCV" route="eastWest" depart="117"  departLane="best" departSpeed="max"/>
    <vehicle id="144" type="typeITSCV" route="westEast" depart="117"  departLane="best" departSpeed="max"/>
    <vehicle id="145" type="typeITSCV" route="westEast" depart="120"  departLane="best" departSpeed="max"/>
    <vehicle id="146" type="typeITSCV" route="eastWest" depart="121"  departLane="best" departSpeed="max"/>
    <vehicle id="147" type="typeITSCV" route="eastWest" depart="122"  departLane="best" departSpeed="max"/>
    <vehicle id="148" type="typeHuman" route="eastSouth" depart="124"  departLane="best" departSpeed="max"/>
    <vehicle id="149" type="typeHuman" route="eastWest" depart="126"  departLane="best" departSpeed="max"/>
    <vehicle id="150" type="typeITSCV" route="eastWest" depart="127"  departLane="best" departSpeed="max"/>
    <vehicle id="151" type="typeHuman" route="westEast" depart="127"  departLane="best" departSpeed="max"/>
    <vehicle id="152" type="typeITSCV" route="westEast" depart="128"  departLane="best" departSpeed="max"/>
    <vehicle id="153" type="typeITSCV" route="westEast" depart="129"  departLane="best" departSpeed="max"/>
    <vehicle id="154" type="typeHuman" route="westEast" depart="130"  departLane="best" departSpeed="max"/>
    <vehicle id="155" type="typeITSCV" route="eastWest" depart="131"  departLane="best" departSpeed="max"/>
    <vehicle id="156" type="typeITSCV" route="eastWest" depart="133"  departLane="best" departSpeed="max"/>
    <vehicle id="157" type="typeITSCV" route="westEast" depart="133"  departLane="best" departSpeed="max"/>
    <vehicle id="158" type="typeHuman" route="eastWest" depart="134"  departLane="best" departSpeed="max"/>
    <vehicle id="159" type="typeITSCV" route="southEast" depart="134"  departLane="best" departSpeed="max"/>
    <vehicle id="160" type="typeHuman" route="westEast" depart="135"  departLane="best" departSpeed="max"/>
    <vehicle id="161" type="typeHuman" route="westEast" depart="136"  departLane="best" departSpeed="max"/>
    <vehicle id="162" type="typeITSCV" route="eastWest" depart="137"  departLane="best" departSpeed="max"/>
    <vehicle id="163" type="typeITSCV" route="westEast" depart="137"  departLane="best" departSpeed="max"/>
    <vehicle id="164" type="typeITSCV" route="westEast" depart="138"  departLane="best" departSpeed="max"/>
    <vehicle id="165" type="typeITSCV" route="eastWest" depart="139"  departLane="best" departSpeed="max"/>
    <vehicle id="166" type="typeITSCV" route="westEast" depart="139"  departLane="best" departSpeed="max"/>
    <vehicle id="167" type="typeITSCV" route="eastWest" depart="140"  departLane="best" departSpeed="max"/>
    <vehicle id="168" type="typeITSCV" route="eastWest" depart="141"  departLane="best" departSpeed="max"/>
    <vehicle id="169" type="typeHuman" route="eastWest" depart="142"  departLane="best" departSpeed="max"/>
    <vehicle id="170" type="typeITSCV" route="westEast" depart="142"  departLane="best" departSpeed="max"/>
    <vehicle id="171" type="typeITSCV" route="westEast" depart="144"  departLane="best" departSpeed="max"/>
    <vehicle id="172" type="typeITSCV" route="eastWest" depart="145"  departLane="best" departSpeed="max"/>
    <vehicle id="173" type="typeHuman" route="westEast" depart="145"  departLane="best" departSpeed="max"/>
    <vehicle id="174" type="typeITSCV" route="westEast" depart="147"  departLane="best" departSpeed="max"/>
    <vehicle id="175" type="typeITSCV" route="eastSouth" depart="148"  departLane="best" departSpeed="max"/>
    <vehicle id="176" type="typeHuman" route="eastWest" depart="150"  departLane="best" departSpeed="max"/>
    <vehicle id="177" type="typeITSCV" route="westSouth" depart="150"  departLane="best" departSpeed="max"/>
    <vehicle id="178" type="typeITSCV" route="eastWest" depart="151"  departLane="best" departSpeed="max"/>
    <vehicle id="179" type="typeITSCV" route="westSouth" depart="151"  departLane="best" departSpeed="max"/>
    <vehicle id="180" type="typeITSCV" route="southWest" depart="151"  departLane="best" departSpeed="max"/>
    <vehicle id="181" type="typeHuman" route="westEast" depart="152"  departLane="best" departSpeed="max"/>
    <vehicle id="182" type="typeITSCV" route="eastWest" depart="154"  departLane="best" departSpeed="max"/>
    <vehicle id="183" type="typeITSCV" route="eastSouth" depart="155"  departLane="best" departSpeed="max"/>
    <vehicle id="184" type="typeITSCV" route="eastWest" depart="155"  departLane="best" departSpeed="max"/>
    <vehicle id="185" type="typeITSCV" route="southEast" depart="156"  departLane="best" departSpeed="max"/>
    <vehicle id="186" type="typeITSCV" route="westEast" depart="157"  departLane="best" departSpeed="max"/>
    <vehicle id="187" type="typeHuman" route="westEast" depart="160"  departLane="best" departSpeed="max"/>
    <vehicle id="188" type="typeITSCV" route="southWest" depart="160"  departLane="best" departSpeed="max"/>
    <vehicle id="189" type="typeHuman" route="eastWest" depart="161"  departLane="best" departSpeed="max"/>
    <vehicle id="190" type="typeITSCV" route="eastWest" depart="162"  departLane="best" departSpeed="max"/>
    <vehicle id="191" type="typeHuman" route="westSouth" depart="162"  departLane="best" departSpeed="max"/>
    <vehicle id="192" type="typeITSCV" route="westEast" depart="162"  departLane="best" departSpeed="max"/>
    <vehicle id="193" type="typeITSCV" route="westSouth" depart="163"  departLane="best" departSpeed="max"/>
    <vehicle id="194" type="typeITSCV" route="southWest" depart="163"  departLane="best" departSpeed="max"/>
    <vehicle id="195" type="typeHuman" route="southWest" depart="164"  departLane="best" departSpeed="max"/>
    <vehicle id="196" type="typeITSCV" route="eastWest" depart="166"  departLane="best" departSpeed="max"/>
    <vehicle id="197" type="typeITSCV" route="eastWest" depart="167"  departLane="best" departSpeed="max"/>
    <vehicle id="198" type="typeHuman" route="westEast" depart="167"  departLane="best" departSpeed="max"/>
    <vehicle id="199" type="typeHuman" route="westSouth" depart="168"  departLane="best" departSpeed="max"/>
    <vehicle id="200" type="typeHuman" route="westEast" depart="168"  departLane="best" departSpeed="max"/>
    <vehicle id="201" type="typeITSCV" route="westEast" depart="169"  departLane="best" departSpeed="max"/>
    <vehicle id="202" type="typeHuman" route="eastWest" depart="170"  departLane="best" departSpeed="max"/>
    <vehicle id="203" type="typeHuman" route="westEast" depart="170"  departLane="best" departSpeed="max"/>
    <vehicle id="204" type="typeITSCV" route="eastWest" depart="171"  departLane="best" departSpeed="max"/>
    <vehicle id="205" type="typeITSCV" route="eastWest" depart="172"  departLane="best" departSpeed="max"/>
    <vehicle id="206" type="typeITSCV" route="eastWest" depart="173"  departLane="best" departSpeed="max"/>
    <vehicle id="207" type="typeITSCV" route="westSouth" depart="173"  departLane="best" departSpeed="max"/>
    <vehicle id="208" type="typeITSCV" route="eastWest" depart="174"  departLane="best" departSpeed="max"/>
    <vehicle id="209" type="typeITSCV" route="westEast" depart="175"  departLane="best" departSpeed="max"/>
    <vehicle id="210" type="typeHuman" route="westEast" depart="177"  departLane="best" departSpeed="max"/>
    <vehicle id="211" type="typeITSCV" route="westEast" depart="178"  departLane="best" departSpeed="max"/>
    <vehicle id="212" type="typeITSCV" route="eastWest" depart="180"  departLane="best" departSpeed="max"/>
    <vehicle id="213" type="typeITSCV" route="westEast" depart="180"  departLane="best" departSpeed="max"/>
    <vehicle id="214" type="typeHuman" route="westEast" depart="181"  departLane="best" departSpeed="max"/>
    <vehicle id="215" type="typeITSCV" route="southWest" depart="182"  departLane="best" departSpeed="max"/>
    <vehicle id="216" type="typeHuman" route="westEast" depart="183"  departLane="best" departSpeed="max"/>
    <vehicle id="217" type="typeITSCV" route="eastWest" depart="184"  departLane="best" departSpeed="max"/>
    <vehicle id="218" type="typeITSCV" route="westEast" depart="184"  departLane="best" departSpeed="max"/>
    <vehicle id="219" type="typeHuman" route="westEast" depart="187"  departLane="best" departSpeed="max"/>
    <vehicle id="220" type="typeHuman" route="southWest" depart="187"  departLane="best" departSpeed="max"/>
    <vehicle id="221" type="typeITSCV" route="eastWest" depart="188"  departLane="best" departSpeed="max"/>
    <vehicle id="222" type="typeITSCV" route="westEast" depart="188"  departLane="best" departSpeed="max"/>
    <vehicle id="223" type="typeITSCV" route="westEast" depart="189"  departLane="best" departSpeed="max"/>
    <vehicle id="224" type="typeITSCV" route="eastWest" depart="190"  departLane="best" departSpeed="max"/>
    <vehicle id="225" type="typeHuman" route="eastWest" depart="191"  departLane="best" departSpeed="max"/>
    <vehicle id="226" type="typeITSCV" route="westEast" depart="191"  departLane="best" departSpeed="max"/>
    <vehicle id="227" type="typeITSCV" route="southWest" depart="191"  departLane="best" departSpeed="max"/>
    <vehicle id="228" type="typeITSCV" route="westSouth" depart="193"  departLane="best" departSpeed="max"/>
    <vehicle id="229" type="typeITSCV" route="westEast" depart="193"  departLane="best" departSpeed="max"/>
    <vehicle id="230" type="typeITSCV" route="eastWest" depart="194"  departLane="best" departSpeed="max"/>
    <vehicle id="231" type="typeHuman" route="eastWest" depart="195"  departLane="best" departSpeed="max"/>
    <vehicle id="232" type="typeHuman" route="eastSouth" depart="196"  departLane="best" departSpeed="max"/>
    <vehicle id="233" type="typeITSCV" route="westEast" depart="196"  departLane="best" departSpeed="max"/>
    <vehicle id="234" type="typeITSCV" route="southEast" depart="197"  departLane="best" departSpeed="max"/>
    <vehicle id="235" type="typeITSCV" route="southWest" depart="197"  departLane="best" departSpeed="max"/>
    <vehicle id="236" type="typeITSCV" route="westEast" depart="198"  departLane="best" departSpeed="max"/>
    <vehicle id="237" type="typeHuman" route="eastWest" depart="199"  departLane="best" departSpeed="max"/>
    <vehicle id="238" type="typeHuman" route="eastWest" depart="200"  departLane="best" departSpeed="max"/>
    <vehicle id="239" type="typeITSCV" route="westEast" depart="200"  departLane="best" departSpeed="max"/>
    <vehicle id="240" type="typeITSCV" route="eastWest" depart="201"  departLane="best" departSpeed="max"/>
    <vehicle id="241" type="typeHuman" route="westSouth" depart="201"  departLane="best" departSpeed="max"/>
    <vehicle id="242" type="typeITSCV" route="westSouth" depart="202"  departLane="best" departSpeed="max"/>
    <vehicle id="243" type="typeITSCV" route="southEast" depart="202"  departLane="best" departSpeed="max"/>
    <vehicle id="244" type="typeITSCV" route="eastWest" depart="203"  departLane="best" departSpeed="max"/>
    <vehicle id="245" type="typeHuman" route="westEast" depart="203"  departLane="best" departSpeed="max"/>
    <vehicle id="246" type="typeITSCV" route="eastWest" depart="204"  departLane="best" departSpeed="max"/>
    <vehicle id="247" type="typeHuman" route="westEast" depart="204"  departLane="best" departSpeed="max"/>
    <vehicle id="248" type="typeHuman" route="eastWest" depart="205"  departLane="best" departSpeed="max"/>
    <vehicle id="249" type="typeITSCV" route="southEast" depart="205"  departLane="best" departSpeed="max"/>
    <vehicle id="250" type="typeITSCV" route="eastWest" depart="207"  departLane="best" departSpeed="max"/>
    <vehicle id="251" type="typeITSCV" route="westEast" depart="207"  departLane="best" departSpeed="max"/>
    <vehicle id="252" type="typeHuman" route="westEast" depart="208"  departLane="best" departSpeed="max"/>
    <vehicle id="253" type="typeITSCV" route="eastWest" depart="211"  departLane="best" departSpeed="max"/>
    <vehicle id="254" type="typeITSCV" route="westEast" depart="211"  departLane="best" departSpeed="max"/>
    <vehicle id="255" type="typeHuman" route="eastSouth" depart="212"  departLane="best" departSpeed="max"/>
    <vehicle id="256" type="typeITSCV" route="eastWest" depart="212"  departLane="best" departSpeed="max"/>
    <vehicle id="257" type="typeITSCV" route="westSouth" depart="213"  departLane="best" departSpeed="max"/>
    <vehicle id="258" type="typeITSCV" route="westEast" depart="213"  departLane="best" departSpeed="max"/>
    <vehicle id="259" type="typeITSCV" route="eastWest" depart="214"  departLane="best" departSpeed="max"/>
    <vehicle id="260" type="typeITSCV" route="westSouth" depart="214"  departLane="best" departSpeed="max"/>
    <vehicle id="261" type="typeHuman" route="westEast" depart="215"  departLane="best" departSpeed="max"/>
    <vehicle id="262" type="typeITSCV" route="southEast" depart="215"  departLane="best" departSpeed="max"/>
    <vehicle id="263" type="typeHuman" route="westEast" depart="217"  departLane="best" departSpeed="max"/>
    <vehicle id="264" type="typeITSCV" route="westEast" depart="218"  departLane="best" departSpeed="max"/>
    <vehicle id="265" type="typeITSCV" route="eastWest" depart="220"  departLane="best" departSpeed="max"/>
    <vehicle id="266" type="typeHuman" route="westEast" depart="220"  departLane="best" departSpeed="max"/>
    <vehicle id="267" type="typeITSCV" route="westSouth" depart="221"  departLane="best" departSpeed="max"/>
    <vehicle id="268" type="typeHuman" route="westEast" depart="221"  departLane="best" departSpeed="max"/>
    <vehicle id="269" type="typeITSCV" route="southEast" depart="221"  departLane="best" departSpeed="max"/>
    <vehicle id="270" type="typeITSCV" route="eastWest" depart="222"  departLane="best" departSpeed="max"/>
    <vehicle id="271" type="typeITSCV" route="eastWest" depart="223"  departLane="best" departSpeed="max"/>
    <vehicle id="272" type="typeITSCV" route="westEast" depart="223"  departLane="best" departSpeed="max"/>